sad/pglib_opf_case13659_pegase__sad.m
%%%%%%%%%%%%%%%%%%%%%%%%%%%%%%%%%%%%%%%%%%%%%%%%%%%%%%%%%%%%%%%%%%%%%%%%%%%
%%%%                                                                  %%%%%
%%%%    IEEE PES Power Grid Library - Optimal Power Flow - v18.08     %%%%%
%%%%          (https://github.com/power-grid-lib/pglib-opf)           %%%%%
%%%%             Benchmark Group - Small Angle Difference             %%%%%
%%%%                         31 - July - 2018                         %%%%%
%%%%                                                                  %%%%%
%%%%%%%%%%%%%%%%%%%%%%%%%%%%%%%%%%%%%%%%%%%%%%%%%%%%%%%%%%%%%%%%%%%%%%%%%%%
function mpc = pglib_opf_case13659_pegase__sad
mpc.version = '2';
mpc.baseMVA = 100.0;

%% bus data
%	bus_i	type	Pd	Qd	Gs	Bs	area	Vm	Va	baseKV	zone	Vmax	Vmin
mpc.bus = [
	1	 3	 0.0	 0.0	 0.0	 0.0	 0	    1.00000	    0.00000	 20.0	 6	    1.10000	    0.90000;
	2	 1	 72.68	 45.0	 0.0	 6.61	 0	    1.00000	    0.00000	 150.0	 9	    1.10000	    0.90000;
	3	 1	 378.4	 98.5	 0.0	 16.61	 0	    1.00000	    0.00000	 220.0	 6	    1.10000	    0.90000;
	4	 1	 134.0	 19.1	 0.0	 0.08	 0	    1.00000	    0.00000	 154.0	 1	    1.10000	    0.90000;
	5	 1	 151.0	 48.8	 0.0	 4.69	 0	    1.00000	    0.00000	 220.0	 5	    1.10000	    0.90000;
	6	 1	 171.41	 23.4	 0.0	 2.1	 0	    1.00000	    0.00000	 220.0	 5	    1.10000	    0.90000;
	7	 1	 45.95	 14.0	 0.0	 13.34	 0	    1.00000	    0.00000	 220.0	 6	    1.10000	    0.90000;
	8	 1	 343.4	 53.1	 0.70508	 36.832433	 0	    1.00000	    0.00000	 380.0	 6	    1.10000	    0.90000;
	9	 1	 -0.0	 -0.0	 0.0	 75.076713	 0	    1.00000	    0.00000	 380.0	 5	    1.10000	    0.90000;
	10	 1	 31.03	 10.3	 0.0	 0.65	 0	    1.00000	    0.00000	 110.0	 21	    1.10000	    0.90000;
	11	 1	 0.0	 -0.0	 0.0	 3.41	 0	    1.00000	    0.00000	 154.0	 1	    1.10000	    0.90000;
	12	 2	 0.0	 0.0	 0.0	 0.0	 0	    1.00000	    0.00000	 20.0	 3	    1.10000	    0.90000;
	13	 1	 14.3	 2.0	 0.0	 1.91	 0	    1.00000	    0.00000	 154.0	 1	    1.10000	    0.90000;
	14	 1	 134.0	 24.7	 0.0	 12.44	 0	    1.00000	    0.00000	 220.0	 5	    1.10000	    0.90000;
	15	 1	 0.0	 0.0	 0.0	 0.0	 0	    1.00000	    0.00000	 150.0	 9	    1.10000	    0.90000;
	16	 1	 -6.11	 2.0	 0.0	 0.47	 0	    1.00000	    0.00000	 150.0	 9	    1.10000	    0.90000;
	17	 1	 -22.74	 -8.32	 0.0	 6.5	 0	    1.00000	    0.00000	 220.0	 6	    1.10000	    0.90000;
	18	 2	 0.0	 0.0	 0.0	 0.0	 0	    1.00000	    0.00000	 20.0	 14	    1.10000	    0.90000;
	19	 1	 59.67	 26.7	 0.0	 12.84	 0	    1.00000	    0.00000	 220.0	 4	    1.10000	    0.90000;
	20	 1	 30.6	 4.3	 0.0	 5.15	 0	    1.00000	    0.00000	 154.0	 1	    1.10000	    0.90000;
	21	 1	 0.0	 -0.0	 0.234457	 -0.195381	 0	    1.00000	    0.00000	 380.0	 6	    1.10000	    0.90000;
	22	 1	 67.67	 12.1	 0.0	 2.18	 0	    1.00000	    0.00000	 220.0	 3	    1.10000	    0.90000;
	23	 1	 0.0	 0.0	 0.295874	 20.603438	 0	    1.00000	    0.00000	 380.0	 3	    1.10000	    0.90000;
	24	 1	 25.33	 7.5	 0.0	 2.39	 0	    1.00000	    0.00000	 110.0	 12	    1.10000	    0.90000;
	25	 1	 1.4	 0.2	 0.0	 4.93	 0	    1.00000	    0.00000	 154.0	 1	    1.10000	    0.90000;
	26	 1	 161.2	 39.3	 0.0	 30.71	 0	    1.00000	    0.00000	 220.0	 5	    1.10000	    0.90000;
	27	 1	 0.0	 -0.0	 0.0	 0.85	 0	    1.00000	    0.00000	 220.0	 5	    1.10000	    0.90000;
	28	 1	 19.62	 7.1	 0.0	 1.15	 0	    1.00000	    0.00000	 110.0	 19	    1.10000	    0.90000;
	29	 2	 0.0	 0.0	 0.0	 0.0	 0	    1.00000	    0.00000	 20.0	 18	    1.10000	    0.90000;
	30	 1	 31.94	 8.8	 0.0	 0.73	 0	    1.00000	    0.00000	 110.0	 22	    1.10000	    0.90000;
	31	 1	 0.0	 -0.0	 0.235277	 0.313936	 0	    1.00000	    0.00000	 220.0	 3	    1.10000	    0.90000;
	32	 1	 167.3	 54.8	 0.0	 110.54	 0	    1.00000	    0.00000	 380.0	 5	    1.10000	    0.90000;
	33	 2	 0.0	 0.0	 0.0	 0.0	 0	    1.00000	    0.00000	 20.0	 4	    1.10000	    0.90000;
	34	 1	 -0.0	 0.0	 0.0	 14.82	 0	    1.00000	    0.00000	 380.0	 13	    1.10000	    0.90000;
	35	 1	 0.0	 0.0	 0.0	 0.0	 0	    1.00000	    0.00000	 150.0	 9	    1.10000	    0.90000;
	36	 1	 152.9	 49.4	 0.0	 27.65	 0	    1.00000	    0.00000	 380.0	 5	    1.10000	    0.90000;
	37	 1	 -0.0	 0.0	 0.0	 0.56	 0	    1.00000	    0.00000	 150.0	 9	    1.10000	    0.90000;
	38	 1	 69.68	 43.2	 0.0	 6.3	 0	    1.00000	    0.00000	 150.0	 9	    1.10000	    0.90000;
	39	 2	 0.0	 0.0	 0.0	 0.0	 0	    1.00000	    0.00000	 20.0	 9	    1.10000	    0.90000;
	40	 1	 0.0	 -0.0	 0.0	 37.54	 0	    1.00000	    0.00000	 220.0	 4	    1.10000	    0.90000;
	41	 1	 0.0	 -0.0	 0.0	 0.25	 0	    1.00000	    0.00000	 220.0	 4	    1.10000	    0.90000;
	42	 2	 0.0	 0.0	 0.0	 0.0	 0	    1.00000	    0.00000	 11.0	 1	    1.10000	    0.90000;
	43	 1	 13.51	 4.9	 0.0	 1.8	 0	    1.00000	    0.00000	 110.0	 19	    1.10000	    0.90000;
	44	 1	 10.51	 3.5	 0.0	 0.31	 0	    1.00000	    0.00000	 110.0	 12	    1.10000	    0.90000;
	45	 2	 0.0	 0.0	 0.0	 0.0	 0	    1.00000	    0.00000	 20.0	 4	    1.10000	    0.90000;
	46	 1	 -0.0	 0.0	 0.12	 15.34	 0	    1.00000	    0.00000	 220.0	 19	    1.10000	    0.90000;
	47	 1	 9.21	 2.6	 0.0	 2.0	 0	    1.00000	    0.00000	 110.0	 18	    1.10000	    0.90000;
	48	 1	 42.75	 12.8	 0.0	 13.3	 0	    1.00000	    0.00000	 220.0	 8	    1.10000	    0.90000;
	49	 1	 -0.0	 0.0	 0.019959	 0.320041	 0	    1.00000	    0.00000	 150.0	 10	    1.10000	    0.90000;
	50	 1	 16.02	 4.54	 0.0	 0.1	 0	    1.00000	    0.00000	 110.0	 23	    1.10000	    0.90000;
	51	 2	 0.0	 0.0	 0.0	 0.0	 0	    1.00000	    0.00000	 14.4	 1	    1.10000	    0.90000;
	52	 1	 27.9	 4.0	 0.0	 4.23	 0	    1.00000	    0.00000	 154.0	 1	    1.10000	    0.90000;
	53	 1	 20.82	 7.9	 0.0	 26.89	 0	    1.00000	    0.00000	 380.0	 4	    1.10000	    0.90000;
	54	 2	 0.0	 0.0	 0.0	 0.0	 0	    1.00000	    0.00000	 20.0	 14	    1.10000	    0.90000;
	55	 1	 0.0	 0.0	 0.0	 7.27	 0	    1.00000	    0.00000	 220.0	 5	    1.10000	    0.90000;
	56	 1	 10.11	 3.7	 0.0	 0.81	 0	    1.00000	    0.00000	 110.0	 19	    1.10000	    0.90000;
	57	 1	 10.01	 2.7	 0.0	 1.14	 0	    1.00000	    0.00000	 110.0	 18	    1.10000	    0.90000;
	58	 1	 6.31	 -0.0	 0.0	 0.67	 0	    1.00000	    0.00000	 110.0	 18	    1.10000	    0.90000;
	59	 1	 2.9	 0.9	 0.0	 0.6	 0	    1.00000	    0.00000	 110.0	 15	    1.10000	    0.90000;
	60	 1	 -0.0	 0.0	 0.318913	 17.760815	 0	    1.00000	    0.00000	 220.0	 6	    1.10000	    0.90000;
	61	 1	 -0.0	 -0.0	 0.549745	 0.432068	 0	    1.00000	    0.00000	 380.0	 2	    1.10000	    0.90000;
	62	 2	 0.0	 0.0	 0.0	 0.0	 0	    1.00000	    0.00000	 20.0	 5	    1.10000	    0.90000;
	63	 2	 0.0	 0.0	 0.0	 0.0	 0	    1.00000	    0.00000	 20.0	 5	    1.10000	    0.90000;
	64	 1	 151.8	 48.3	 0.0	 5.53	 0	    1.00000	    0.00000	 220.0	 4	    1.10000	    0.90000;
	65	 1	 127.6	 31.8	 0.0	 20.51	 0	    1.00000	    0.00000	 150.0	 8	    1.10000	    0.90000;
	66	 2	 0.0	 0.0	 0.0	 0.0	 0	    1.00000	    0.00000	 20.0	 22	    1.10000	    0.90000;
	67	 1	 0.0	 0.0	 0.0	 0.84	 0	    1.00000	    0.00000	 110.0	 21	    1.10000	    0.90000;
	68	 2	 0.0	 0.0	 0.0	 0.0	 0	    1.00000	    0.00000	 20.0	 4	    1.10000	    0.90000;
	69	 2	 0.0	 0.0	 0.0	 0.0	 0	    1.00000	    0.00000	 20.0	 4	    1.10000	    0.90000;
	70	 1	 110.5	 -26.8	 0.0	 16.37	 0	    1.00000	    0.00000	 220.0	 6	    1.10000	    0.90000;
	71	 1	 -0.0	 -0.0	 0.0	 0.0	 0	    1.00000	    0.00000	 20.0	 5	    1.10000	    0.90000;
	72	 1	 -0.0	 -0.0	 0.0	 0.0	 0	    1.00000	    0.00000	 20.0	 5	    1.10000	    0.90000;
	73	 1	 0.0	 0.0	 0.0	 1.23	 0	    1.00000	    0.00000	 220.0	 3	    1.10000	    0.90000;
	74	 1	 0.0	 -0.0	 0.0	 0.0	 0	    1.00000	    0.00000	 20.0	 5	    1.10000	    0.90000;
	75	 1	 0.0	 -0.0	 0.0	 0.0	 0	    1.00000	    0.00000	 20.0	 5	    1.10000	    0.90000;
	76	 1	 0.0	 -0.0	 0.0	 0.0	 0	    1.00000	    0.00000	 20.0	 5	    1.10000	    0.90000;
	77	 2	 0.0	 0.0	 0.0	 0.0	 0	    1.00000	    0.00000	 20.0	 5	    1.10000	    0.90000;
	78	 2	 0.0	 0.0	 0.0	 0.0	 0	    1.00000	    0.00000	 20.0	 5	    1.10000	    0.90000;
	79	 2	 0.0	 0.0	 0.0	 0.0	 0	    1.00000	    0.00000	 20.0	 5	    1.10000	    0.90000;
	80	 1	 140.0	 79.7	 0.0	 6.5	 0	    1.00000	    0.00000	 220.0	 3	    1.10000	    0.90000;
	81	 1	 21.6	 3.0	 0.0	 3.54	 0	    1.00000	    0.00000	 154.0	 1	    1.10000	    0.90000;
	82	 1	 0.0	 -0.0	 0.0	 2.31	 0	    1.00000	    0.00000	 380.0	 5	    1.10000	    0.90000;
	83	 1	 119.2	 20.7	 0.0	 3.31	 0	    1.00000	    0.00000	 220.0	 5	    1.10000	    0.90000;
	84	 1	 26.43	 9.9	 0.0	 9.57	 0	    1.00000	    0.00000	 110.0	 22	    1.10000	    0.90000;
	85	 1	 0.24	 -1.66	 0.0	 0.65	 0	    1.00000	    0.00000	 110.0	 18	    1.10000	    0.90000;
	86	 2	 0.0	 0.0	 0.0	 0.0	 0	    1.00000	    0.00000	 20.0	 6	    1.10000	    0.90000;
	87	 1	 -0.0	 0.0	 0.0	 0.0	 0	    1.00000	    0.00000	 20.0	 6	    1.10000	    0.90000;
	88	 1	 -0.0	 0.0	 0.0	 0.0	 0	    1.00000	    0.00000	 20.0	 6	    1.10000	    0.90000;
	89	 1	 0.0	 0.0	 0.0	 58.57	 0	    1.00000	    0.00000	 380.0	 3	    1.10000	    0.90000;
	90	 1	 -0.0	 0.0	 0.0	 1.34	 0	    1.00000	    0.00000	 110.0	 18	    1.10000	    0.90000;
	91	 1	 187.9	 110.2	 0.0	 21.25	 0	    1.00000	    0.00000	 380.0	 3	    1.10000	    0.90000;
	92	 1	 14.92	 5.5	 0.0	 1.31	 0	    1.00000	    0.00000	 110.0	 15	    1.10000	    0.90000;
	93	 1	 -18.52	 6.1	 0.0	 0.79	 0	    1.00000	    0.00000	 150.0	 9	    1.10000	    0.90000;
	94	 2	 0.0	 0.0	 0.0	 0.0	 0	    1.00000	    0.00000	 11.0	 1	    1.10000	    0.90000;
	95	 1	 4.61	 1.7	 0.0	 2.32	 0	    1.00000	    0.00000	 110.0	 19	    1.10000	    0.90000;
	96	 2	 0.0	 0.0	 0.0	 0.0	 0	    1.00000	    0.00000	 20.0	 4	    1.10000	    0.90000;
	97	 2	 0.0	 0.0	 0.0	 0.0	 0	    1.00000	    0.00000	 20.0	 4	    1.10000	    0.90000;
	98	 2	 0.0	 0.0	 0.0	 0.0	 0	    1.00000	    0.00000	 20.0	 4	    1.10000	    0.90000;
	99	 2	 0.0	 0.0	 0.0	 0.0	 0	    1.00000	    0.00000	 20.0	 4	    1.10000	    0.90000;
	100	 2	 0.0	 0.0	 0.0	 0.0	 0	    1.00000	    0.00000	 20.0	 4	    1.10000	    0.90000;
	101	 2	 0.0	 0.0	 0.0	 0.0	 0	    1.00000	    0.00000	 20.0	 4	    1.10000	    0.90000;
	102	 2	 0.0	 0.0	 0.0	 0.0	 0	    1.00000	    0.00000	 20.0	 4	    1.10000	    0.90000;
	103	 1	 62.87	 20.5	 0.0	 1.15	 0	    1.00000	    0.00000	 150.0	 8	    1.10000	    0.90000;
	104	 2	 0.0	 0.0	 0.0	 0.0	 0	    1.00000	    0.00000	 20.0	 3	    1.10000	    0.90000;
	105	 1	 13.5	 14.8	 0.0	 132.435168	 0	    1.00000	    0.00000	 380.0	 9	    1.20000	    0.80000;
	106	 1	 126.3	 42.4	 0.0	 55.24	 0	    1.00000	    0.00000	 150.0	 8	    1.10000	    0.90000;
	107	 2	 0.0	 0.0	 0.0	 0.0	 0	    1.00000	    0.00000	 20.0	 3	    1.10000	    0.90000;
	108	 1	 6.91	 -4.6	 0.0	 5.75	 0	    1.00000	    0.00000	 220.0	 4	    1.10000	    0.90000;
	109	 1	 15.72	 5.2	 0.0	 0.11	 0	    1.00000	    0.00000	 110.0	 12	    1.10000	    0.90000;
	110	 2	 0.0	 0.0	 0.0	 0.0	 0	    1.00000	    0.00000	 20.0	 3	    1.10000	    0.90000;
	111	 1	 16.12	 4.3	 0.0	 0.49	 0	    1.00000	    0.00000	 110.0	 23	    1.10000	    0.90000;
	112	 1	 38.74	 6.1	 0.0	 1.17	 0	    1.00000	    0.00000	 220.0	 4	    1.10000	    0.90000;
	113	 1	 22.13	 10.7	 0.0	 14.21	 0	    1.00000	    0.00000	 220.0	 8	    1.10000	    0.90000;
	114	 2	 0.0	 0.0	 0.0	 0.0	 0	    1.00000	    0.00000	 20.0	 4	    1.10000	    0.90000;
	115	 2	 0.0	 0.0	 0.0	 0.0	 0	    1.00000	    0.00000	 20.0	 10	    1.10000	    0.90000;
	116	 1	 0.0	 -0.0	 0.0	 0.73	 0	    1.00000	    0.00000	 220.0	 4	    1.10000	    0.90000;
	117	 1	 0.0	 0.0	 0.0	 0.83	 0	    1.00000	    0.00000	 110.0	 18	    1.10000	    0.90000;
	118	 1	 138.8	 136.7	 0.0	 8.76	 0	    1.00000	    0.00000	 380.0	 3	    1.10000	    0.90000;
	119	 1	 137.3	 66.4	 0.174767	 14.17407	 0	    1.00000	    0.00000	 220.0	 23	    1.10000	    0.90000;
	120	 1	 67.76	 19.18	 0.0	 1.47	 0	    1.00000	    0.00000	 150.0	 1	    1.10000	    0.90000;
	121	 2	 0.0	 0.0	 0.0	 0.0	 0	    1.00000	    0.00000	 20.0	 14	    1.10000	    0.90000;
	122	 1	 0.0	 -0.0	 0.0	 6.62	 0	    1.00000	    0.00000	 220.0	 3	    1.10000	    0.90000;
	123	 1	 -0.0	 -0.0	 0.0	 7.22	 0	    1.00000	    0.00000	 380.0	 1	    1.10000	    0.90000;
	124	 1	 1.0	 0.3	 0.0	 0.19	 0	    1.00000	    0.00000	 110.0	 19	    1.10000	    0.90000;
	125	 1	 20.9	 3.0	 0.0	 5.74	 0	    1.00000	    0.00000	 154.0	 1	    1.10000	    0.90000;
	126	 1	 0.0	 0.0	 0.0	 0.12	 0	    1.00000	    0.00000	 150.0	 9	    1.10000	    0.90000;
	127	 1	 21.52	 5.1	 0.0	 0.5	 0	    1.00000	    0.00000	 110.0	 18	    1.10000	    0.90000;
	128	 1	 71.98	 28.8	 0.0	 11.0	 0	    1.00000	    0.00000	 220.0	 6	    1.10000	    0.90000;
	129	 1	 0.0	 0.0	 0.205132	 4.470744	 0	    1.00000	    0.00000	 380.0	 2	    1.10000	    0.90000;
	130	 1	 363.25	 115.39	 0.0	 3.95	 0	    1.00000	    0.00000	 220.0	 5	    1.10000	    0.90000;
	131	 1	 192.9	 73.3	 0.0	 20.75	 0	    1.00000	    0.00000	 380.0	 3	    1.10000	    0.90000;
	132	 2	 0.0	 0.0	 0.0	 0.0	 0	    1.00000	    0.00000	 11.0	 1	    1.10000	    0.90000;
	133	 2	 0.0	 0.0	 0.0	 0.0	 0	    1.00000	    0.00000	 20.0	 14	    1.10000	    0.90000;
	134	 2	 0.0	 0.0	 0.0	 0.0	 0	    1.00000	    0.00000	 20.0	 4	    1.10000	    0.90000;
	135	 2	 0.0	 0.0	 0.0	 0.0	 0	    1.00000	    0.00000	 20.0	 4	    1.10000	    0.90000;
	136	 2	 0.0	 0.0	 0.0	 0.0	 0	    1.00000	    0.00000	 20.0	 3	    1.10000	    0.90000;
	137	 1	 17.52	 6.3	 0.0	 0.26	 0	    1.00000	    0.00000	 110.0	 19	    1.10000	    0.90000;
	138	 1	 33.14	 12.0	 0.0	 0.65	 0	    1.00000	    0.00000	 110.0	 19	    1.10000	    0.90000;
	139	 1	 40.44	 25.0	 0.0	 9.82	 0	    1.00000	    0.00000	 150.0	 9	    1.10000	    0.90000;
	140	 1	 193.17	 53.37	 0.0	 4.58	 0	    1.00000	    0.00000	 220.0	 5	    1.10000	    0.90000;
	141	 1	 90.7	 25.5	 0.0	 3.11	 0	    1.00000	    0.00000	 220.0	 3	    1.20000	    0.80000;
	142	 1	 176.3	 -58.9	 0.0	 24.77	 0	    1.00000	    0.00000	 380.0	 6	    1.10000	    0.90000;
	143	 1	 35.94	 22.3	 0.0	 0.0	 0	    1.00000	    0.00000	 150.0	 9	    1.10000	    0.90000;
	144	 2	 0.0	 0.0	 0.0	 0.0	 0	    1.00000	    0.00000	 20.0	 14	    1.10000	    0.90000;
	145	 2	 0.0	 0.0	 0.0	 0.0	 0	    1.00000	    0.00000	 20.0	 5	    1.10000	    0.90000;
	146	 2	 0.0	 0.0	 0.0	 0.0	 0	    1.00000	    0.00000	 20.0	 5	    1.10000	    0.90000;
	147	 2	 0.0	 0.0	 0.0	 0.0	 0	    1.00000	    0.00000	 20.0	 5	    1.10000	    0.90000;
	148	 1	 143.9	 123.2	 0.0	 72.64	 0	    1.00000	    0.00000	 380.0	 3	    1.10000	    0.90000;
	149	 1	 -0.0	 -0.0	 0.0	 3.77	 0	    1.00000	    0.00000	 220.0	 6	    1.10000	    0.90000;
	150	 1	 -0.0	 8.4	 0.0	 15.72	 0	    1.00000	    0.00000	 150.0	 9	    1.10000	    0.90000;
	151	 2	 0.0	 0.0	 0.0	 0.0	 0	    1.00000	    0.00000	 13.8	 1	    1.10000	    0.90000;
	152	 1	 51.36	 -8.8	 0.0	 2.15	 0	    1.00000	    0.00000	 220.0	 6	    1.10000	    0.90000;
	153	 2	 0.0	 0.0	 0.0	 0.0	 0	    1.00000	    0.00000	 20.0	 14	    1.10000	    0.90000;
	154	 2	 0.0	 0.0	 0.0	 0.0	 0	    1.00000	    0.00000	 20.0	 3	    1.10000	    0.90000;
	155	 1	 -0.0	 -0.0	 0.0	 82.55	 0	    1.00000	    0.00000	 380.0	 6	    1.10000	    0.90000;
	156	 2	 0.0	 0.0	 0.0	 0.0	 0	    1.00000	    0.00000	 20.0	 6	    1.10000	    0.90000;
	157	 1	 322.7	 11.9	 0.0	 10.28	 0	    1.00000	    0.00000	 380.0	 6	    1.10000	    0.90000;
	158	 1	 303.6	 79.8	 0.019533	 1.690467	 0	    1.00000	    0.00000	 220.0	 5	    1.10000	    0.90000;
	159	 1	 3.8	 1.3	 0.0	 0.4	 0	    1.00000	    0.00000	 110.0	 18	    1.10000	    0.90000;
	160	 1	 137.0	 19.5	 0.0	 4.9	 0	    1.00000	    0.00000	 154.0	 1	    1.10000	    0.90000;
	161	 2	 0.0	 0.0	 0.0	 0.0	 0	    1.00000	    0.00000	 20.0	 6	    1.10000	    0.90000;
	162	 2	 0.0	 0.0	 0.0	 0.0	 0	    1.00000	    0.00000	 20.0	 6	    1.10000	    0.90000;
	163	 1	 0.0	 0.0	 0.0	 0.0	 0	    1.00000	    0.00000	 150.0	 9	    1.10000	    0.90000;
	164	 1	 61.07	 36.0	 0.0	 3.09	 0	    1.00000	    0.00000	 220.0	 11	    1.10000	    0.90000;
	165	 2	 0.0	 0.0	 0.0	 0.0	 0	    1.00000	    0.00000	 20.0	 4	    1.10000	    0.90000;
	166	 1	 -0.0	 0.0	 0.0	 3.24	 0	    1.00000	    0.00000	 220.0	 3	    1.10000	    0.90000;
	167	 1	 0.0	 0.0	 0.0	 6.520303	 0	    1.00000	    0.00000	 380.0	 5	    1.10000	    0.90000;
	168	 1	 55.7	 7.9	 0.0	 4.21	 0	    1.00000	    0.00000	 154.0	 1	    1.10000	    0.90000;
	169	 1	 0.0	 0.0	 0.0	 4.21	 0	    1.00000	    0.00000	 220.0	 5	    1.10000	    0.90000;
	170	 1	 1.8	 0.7	 0.0	 0.3	 0	    1.00000	    0.00000	 110.0	 19	    1.10000	    0.90000;
	171	 1	 0.0	 -0.0	 0.0	 0.71	 0	    1.00000	    0.00000	 150.0	 9	    1.10000	    0.90000;
	172	 1	 2.5	 0.0	 0.0	 0.96	 0	    1.00000	    0.00000	 110.0	 18	    1.10000	    0.90000;
	173	 1	 0.0	 0.0	 0.0	 0.09	 0	    1.00000	    0.00000	 150.0	 9	    1.10000	    0.90000;
	174	 1	 38.94	 11.0	 0.0	 0.64	 0	    1.00000	    0.00000	 110.0	 1	    1.10000	    0.90000;
	175	 1	 45.15	 14.1	 0.0	 0.19	 0	    1.00000	    0.00000	 110.0	 15	    1.10000	    0.90000;
	176	 1	 0.0	 -0.0	 0.0	 5.75	 0	    1.00000	    0.00000	 220.0	 3	    1.10000	    0.90000;
	177	 1	 0.0	 0.0	 0.019004	 4.360996	 0	    1.00000	    0.00000	 220.0	 11	    1.10000	    0.90000;
	178	 1	 0.0	 -0.0	 0.566322	 -0.241138	 0	    1.00000	    0.00000	 220.0	 5	    1.10000	    0.90000;
	179	 2	 0.0	 0.0	 0.0	 0.0	 0	    1.00000	    0.00000	 20.0	 4	    1.10000	    0.90000;
	180	 1	 17.22	 5.7	 0.0	 1.22	 0	    1.00000	    0.00000	 110.0	 21	    1.10000	    0.90000;
	181	 1	 -0.0	 -0.0	 0.0	 0.0	 0	    1.00000	    0.00000	 20.0	 14	    1.10000	    0.90000;
	182	 2	 0.0	 0.0	 0.0	 0.0	 0	    1.00000	    0.00000	 20.0	 20	    1.10000	    0.90000;
	183	 1	 0.0	 0.0	 0.0	 4.3	 0	    1.00000	    0.00000	 220.0	 6	    1.10000	    0.90000;
	184	 1	 23.73	 12.7	 0.0	 0.52	 0	    1.00000	    0.00000	 220.0	 5	    1.10000	    0.90000;
	185	 1	 121.9	 7.4	 0.0	 1.34	 0	    1.00000	    0.00000	 220.0	 3	    1.10000	    0.90000;
	186	 1	 0.0	 -0.0	 0.135375	 47.750675	 0	    1.00000	    0.00000	 380.0	 10	    1.10000	    0.90000;
	187	 1	 47.35	 16.4	 0.0	 4.08	 0	    1.00000	    0.00000	 110.0	 22	    1.10000	    0.90000;
	188	 1	 -0.0	 0.0	 0.0	 0.0	 0	    1.00000	    0.00000	 20.0	 4	    1.10000	    0.90000;
	189	 1	 -0.0	 -0.0	 0.0	 21.39	 0	    1.00000	    0.00000	 380.0	 1	    1.10000	    0.90000;
	190	 1	 38.14	 12.5	 0.0	 6.28	 0	    1.00000	    0.00000	 150.0	 8	    1.10000	    0.90000;
	191	 1	 54.2	 7.8	 0.0	 94.9	 0	    1.00000	    0.00000	 400.0	 1	    1.10000	    0.90000;
	192	 1	 130.6	 84.9	 0.0	 4.22	 0	    1.00000	    0.00000	 220.0	 7	    1.10000	    0.90000;
	193	 1	 7.91	 2.6	 0.0	 0.74	 0	    1.00000	    0.00000	 110.0	 12	    1.10000	    0.90000;
	194	 1	 42.1	 74.61	 0.0	 37.58	 0	    1.00000	    0.00000	 150.0	 1	    1.10000	    0.90000;
	195	 1	 -75.38	 7.8	 0.0	 29.9	 0	    1.00000	    0.00000	 380.0	 10	    1.10000	    0.90000;
	196	 2	 0.0	 0.0	 0.0	 0.0	 0	    1.00000	    0.00000	 20.0	 6	    1.10000	    0.90000;
	197	 2	 0.0	 0.0	 0.0	 0.0	 0	    1.00000	    0.00000	 20.0	 4	    1.10000	    0.90000;
	198	 1	 41.05	 14.3	 0.0	 11.53	 0	    1.00000	    0.00000	 220.0	 6	    1.10000	    0.90000;
	199	 1	 -0.0	 -0.0	 0.0	 4.14	 0	    1.00000	    0.00000	 220.0	 8	    1.10000	    0.90000;
	200	 1	 100.9	 49.3	 0.020067	 4.329933	 0	    1.00000	    0.00000	 220.0	 13	    1.10000	    0.90000;
...
];

%% generator data
%	bus	Pg	Qg	Qmax	Qmin	Vg	mBase	status	Pmax	Pmin	Pc1	Pc2	Qc1min	Qc1max	Qc2min	Qc2max	ramp_agc	ramp_10	ramp_30	ramp_q	apf
mpc.gen = [
	1	 64.11	 15.0	 40.0	 -10.0	 1.031695	 100.0	 1	 100.0	 28.22	 0.0	 0.0	 0.0	 0.0	 0.0	 0.0	 0.0	 0.0	 0.0	 0.0	 0.0;
	12	 300.0	 80.0	 210.0	 -50.0	 1.004054	 100.0	 1	 500.0	 100.0	 0.0	 0.0	 0.0	 0.0	 0.0	 0.0	 0.0	 0.0	 0.0	 0.0	 0.0;
	18	 62.675	 10.0	 30.0	 -10.0	 1.043087	 100.0	 1	 100.0	 25.35	 0.0	 0.0	 0.0	 0.0	 0.0	 0.0	 0.0	 0.0	 0.0	 0.0	 0.0;
	29	 61.595	 10.0	 30.0	 -10.0	 1.033319	 100.0	 1	 100.0	 23.19	 0.0	 0.0	 0.0	 0.0	 0.0	 0.0	 0.0	 0.0	 0.0	 0.0	 0.0;
	33	 58.45	 15.0	 40.0	 -10.0	 1.018631	 100.0	 1	 100.0	 16.9	 0.0	 0.0	 0.0	 0.0	 0.0	 0.0	 0.0	 0.0	 0.0	 0.0	 0.0;
	39	 300.0	 80.0	 210.0	 -50.0	 1.073284	 100.0	 1	 500.0	 100.0	 0.0	 0.0	 0.0	 0.0	 0.0	 0.0	 0.0	 0.0	 0.0	 0.0	 0.0;
	42	 55.365	 0.0	 20.0	 -20.0	 0.985213	 100.0	 1	 100.0	 10.73	 0.0	 0.0	 0.0	 0.0	 0.0	 0.0	 0.0	 0.0	 0.0	 0.0	 0.0;
	45	 250.0	 60.0	 160.0	 -40.0	 1.012099	 100.0	 1	 400.0	 100.0	 0.0	 0.0	 0.0	 0.0	 0.0	 0.0	 0.0	 0.0	 0.0	 0.0	 0.0;
	51	 250.0	 0.0	 90.0	 -90.0	 1.011416	 100.0	 1	 400.0	 100.0	 0.0	 0.0	 0.0	 0.0	 0.0	 0.0	 0.0	 0.0	 0.0	 0.0	 0.0;
	54	 62.36	 10.0	 30.0	 -10.0	 1.021005	 100.0	 1	 100.0	 24.72	 0.0	 0.0	 0.0	 0.0	 0.0	 0.0	 0.0	 0.0	 0.0	 0.0	 0.0;
	62	 850.0	 200.0	 520.0	 -120.0	 1.058268	 100.0	 1	 1300.0	 400.0	 0.0	 0.0	 0.0	 0.0	 0.0	 0.0	 0.0	 0.0	 0.0	 0.0	 0.0;
	63	 850.0	 200.0	 520.0	 -120.0	 1.058268	 100.0	 1	 1300.0	 400.0	 0.0	 0.0	 0.0	 0.0	 0.0	 0.0	 0.0	 0.0	 0.0	 0.0	 0.0;
	66	 250.0	 60.0	 160.0	 -40.0	 1.034768	 100.0	 1	 400.0	 100.0	 0.0	 0.0	 0.0	 0.0	 0.0	 0.0	 0.0	 0.0	 0.0	 0.0	 0.0;
	68	 117.905	 15.0	 40.0	 -10.0	 1.035023	 100.0	 1	 200.0	 35.81	 0.0	 0.0	 0.0	 0.0	 0.0	 0.0	 0.0	 0.0	 0.0	 0.0	 0.0;
	69	 117.905	 15.0	 40.0	 -10.0	 1.035023	 100.0	 1	 200.0	 35.81	 0.0	 0.0	 0.0	 0.0	 0.0	 0.0	 0.0	 0.0	 0.0	 0.0	 0.0;
	77	 58.215	 10.0	 30.0	 -10.0	 1.038344	 100.0	 1	 100.0	 16.43	 0.0	 0.0	 0.0	 0.0	 0.0	 0.0	 0.0	 0.0	 0.0	 0.0	 0.0;
	78	 118.16	 10.0	 30.0	 -10.0	 1.027383	 100.0	 1	 200.0	 36.32	 0.0	 0.0	 0.0	 0.0	 0.0	 0.0	 0.0	 0.0	 0.0	 0.0	 0.0;
	79	 56.045	 10.0	 30.0	 -10.0	 1.016716	 100.0	 1	 100.0	 12.09	 0.0	 0.0	 0.0	 0.0	 0.0	 0.0	 0.0	 0.0	 0.0	 0.0	 0.0;
	86	 250.0	 30.0	 80.0	 -20.0	 1.023881	 100.0	 1	 400.0	 100.0	 0.0	 0.0	 0.0	 0.0	 0.0	 0.0	 0.0	 0.0	 0.0	 0.0	 0.0;
	94	 55.88	 5.0	 20.0	 -10.0	 1.022611	 100.0	 1	 100.0	 11.76	 0.0	 0.0	 0.0	 0.0	 0.0	 0.0	 0.0	 0.0	 0.0	 0.0	 0.0;
	96	 66.475	 15.0	 40.0	 -10.0	 1.043225	 100.0	 1	 100.0	 32.95	 0.0	 0.0	 0.0	 0.0	 0.0	 0.0	 0.0	 0.0	 0.0	 0.0	 0.0;
	97	 66.475	 15.0	 40.0	 -10.0	 1.043225	 100.0	 1	 100.0	 32.95	 0.0	 0.0	 0.0	 0.0	 0.0	 0.0	 0.0	 0.0	 0.0	 0.0	 0.0;
	98	 66.475	 15.0	 40.0	 -10.0	 1.043225	 100.0	 1	 100.0	 32.95	 0.0	 0.0	 0.0	 0.0	 0.0	 0.0	 0.0	 0.0	 0.0	 0.0	 0.0;
	99	 57.95	 15.0	 40.0	 -10.0	 1.031885	 100.0	 1	 100.0	 15.9	 0.0	 0.0	 0.0	 0.0	 0.0	 0.0	 0.0	 0.0	 0.0	 0.0	 0.0;
	100	 57.95	 15.0	 40.0	 -10.0	 1.031885	 100.0	 1	 100.0	 15.9	 0.0	 0.0	 0.0	 0.0	 0.0	 0.0	 0.0	 0.0	 0.0	 0.0	 0.0;
	101	 66.475	 15.0	 40.0	 -10.0	 1.043225	 100.0	 1	 100.0	 32.95	 0.0	 0.0	 0.0	 0.0	 0.0	 0.0	 0.0	 0.0	 0.0	 0.0	 0.0;
	102	 66.475	 15.0	 40.0	 -10.0	 1.043225	 100.0	 1	 100.0	 32.95	 0.0	 0.0	 0.0	 0.0	 0.0	 0.0	 0.0	 0.0	 0.0	 0.0	 0.0;
	104	 129.315	 20.0	 60.0	 -20.0	 1.052257	 100.0	 1	 200.0	 58.63	 0.0	 0.0	 0.0	 0.0	 0.0	 0.0	 0.0	 0.0	 0.0	 0.0	 0.0;
	107	 122.755	 20.0	 60.0	 -20.0	 1.028153	 100.0	 1	 200.0	 45.51	 0.0	 0.0	 0.0	 0.0	 0.0	 0.0	 0.0	 0.0	 0.0	 0.0	 0.0;
	110	 130.49	 20.0	 60.0	 -20.0	 1.051233	 100.0	 1	 200.0	 60.98	 0.0	 0.0	 0.0	 0.0	 0.0	 0.0	 0.0	 0.0	 0.0	 0.0	 0.0;
	114	 64.115	 15.0	 40.0	 -10.0	 1.030832	 100.0	 1	 100.0	 28.23	 0.0	 0.0	 0.0	 0.0	 0.0	 0.0	 0.0	 0.0	 0.0	 0.0	 0.0;
	115	 57.45	 10.0	 30.0	 -10.0	 1.019	 100.0	 1	 100.0	 14.9	 0.0	 0.0	 0.0	 0.0	 0.0	 0.0	 0.0	 0.0	 0.0	 0.0	 0.0;
	121	 62.01	 10.0	 30.0	 -10.0	 1.045359	 100.0	 1	 100.0	 24.02	 0.0	 0.0	 0.0	 0.0	 0.0	 0.0	 0.0	 0.0	 0.0	 0.0	 0.0;
	132	 52.175	 0.0	 10.0	 -10.0	 0.996117	 100.0	 1	 100.0	 4.35	 0.0	 0.0	 0.0	 0.0	 0.0	 0.0	 0.0	 0.0	 0.0	 0.0	 0.0;
	133	 62.255	 10.0	 30.0	 -10.0	 1.042317	 100.0	 1	 100.0	 24.51	 0.0	 0.0	 0.0	 0.0	 0.0	 0.0	 0.0	 0.0	 0.0	 0.0	 0.0;
	134	 65.18	 15.0	 40.0	 -10.0	 1.044129	 100.0	 1	 100.0	 30.36	 0.0	 0.0	 0.0	 0.0	 0.0	 0.0	 0.0	 0.0	 0.0	 0.0	 0.0;
	135	 64.115	 15.0	 40.0	 -10.0	 1.030832	 100.0	 1	 100.0	 28.23	 0.0	 0.0	 0.0	 0.0	 0.0	 0.0	 0.0	 0.0	 0.0	 0.0	 0.0;
	136	 116.945	 20.0	 60.0	 -20.0	 1.049674	 100.0	 1	 200.0	 33.89	 0.0	 0.0	 0.0	 0.0	 0.0	 0.0	 0.0	 0.0	 0.0	 0.0	 0.0;
	144	 55.935	 10.0	 30.0	 -10.0	 1.034631	 100.0	 1	 100.0	 11.87	 0.0	 0.0	 0.0	 0.0	 0.0	 0.0	 0.0	 0.0	 0.0	 0.0	 0.0;
	145	 850.0	 200.0	 520.0	 -120.0	 1.040587	 100.0	 1	 1300.0	 400.0	 0.0	 0.0	 0.0	 0.0	 0.0	 0.0	 0.0	 0.0	 0.0	 0.0	 0.0;
	146	 850.0	 200.0	 520.0	 -120.0	 1.044313	 100.0	 1	 1300.0	 400.0	 0.0	 0.0	 0.0	 0.0	 0.0	 0.0	 0.0	 0.0	 0.0	 0.0	 0.0;
	147	 850.0	 200.0	 520.0	 -120.0	 1.044313	 100.0	 1	 1300.0	 400.0	 0.0	 0.0	 0.0	 0.0	 0.0	 0.0	 0.0	 0.0	 0.0	 0.0	 0.0;
	151	 300.0	 45.0	 150.0	 -60.0	 1.023215	 100.0	 1	 500.0	 100.0	 0.0	 0.0	 0.0	 0.0	 0.0	 0.0	 0.0	 0.0	 0.0	 0.0	 0.0;
	153	 62.045	 10.0	 30.0	 -10.0	 1.027348	 100.0	 1	 100.0	 24.09	 0.0	 0.0	 0.0	 0.0	 0.0	 0.0	 0.0	 0.0	 0.0	 0.0	 0.0;
	154	 1050.0	 200.0	 520.0	 -120.0	 1.05252	 100.0	 1	 1600.0	 500.0	 0.0	 0.0	 0.0	 0.0	 0.0	 0.0	 0.0	 0.0	 0.0	 0.0	 0.0;
	156	 66.445	 15.0	 40.0	 -10.0	 1.034597	 100.0	 1	 100.0	 32.89	 0.0	 0.0	 0.0	 0.0	 0.0	 0.0	 0.0	 0.0	 0.0	 0.0	 0.0;
	161	 66.445	 15.0	 40.0	 -10.0	 1.034597	 100.0	 1	 100.0	 32.89	 0.0	 0.0	 0.0	 0.0	 0.0	 0.0	 0.0	 0.0	 0.0	 0.0	 0.0;
	162	 66.445	 15.0	 40.0	 -10.0	 1.034597	 100.0	 1	 100.0	 32.89	 0.0	 0.0	 0.0	 0.0	 0.0	 0.0	 0.0	 0.0	 0.0	 0.0	 0.0;
	165	 64.115	 15.0	 40.0	 -10.0	 1.030832	 100.0	 1	 100.0	 28.23	 0.0	 0.0	 0.0	 0.0	 0.0	 0.0	 0.0	 0.0	 0.0	 0.0	 0.0;
	179	 131.675	 20.0	 60.0	 -20.0	 1.023144	 100.0	 1	 200.0	 63.35	 0.0	 0.0	 0.0	 0.0	 0.0	 0.0	 0.0	 0.0	 0.0	 0.0	 0.0;
	182	 61.655	 10.0	 30.0	 -10.0	 1.054937	 100.0	 1	 100.0	 23.31	 0.0	 0.0	 0.0	 0.0	 0.0	 0.0	 0.0	 0.0	 0.0	 0.0	 0.0;
	196	 127.025	 20.0	 60.0	 -20.0	 1.021915	 100.0	 1	 200.0	 54.05	 0.0	 0.0	 0.0	 0.0	 0.0	 0.0	 0.0	 0.0	 0.0	 0.0	 0.0;
	197	 300.0	 60.0	 160.0	 -40.0	 1.005341	 100.0	 1	 500.0	 100.0	 0.0	 0.0	 0.0	 0.0	 0.0	 0.0	 0.0	 0.0	 0.0	 0.0	 0.0;
	207	 59.315	 10.0	 30.0	 -10.0	 1.016461	 100.0	 1	 100.0	 18.63	 0.0	 0.0	 0.0	 0.0	 0.0	 0.0	 0.0	 0.0	 0.0	 0.0	 0.0;
	220	 132.575	 20.0	 60.0	 -20.0	 1.055654	 100.0	 1	 200.0	 65.15	 0.0	 0.0	 0.0	 0.0	 0.0	 0.0	 0.0	 0.0	 0.0	 0.0	 0.0;
	221	 132.575	 20.0	 60.0	 -20.0	 1.055654	 100.0	 1	 200.0	 65.15	 0.0	 0.0	 0.0	 0.0	 0.0	 0.0	 0.0	 0.0	 0.0	 0.0	 0.0;
	222	 132.555	 20.0	 60.0	 -20.0	 1.051105	 100.0	 1	 200.0	 65.11	 0.0	 0.0	 0.0	 0.0	 0.0	 0.0	 0.0	 0.0	 0.0	 0.0	 0.0;
	223	 132.575	 20.0	 60.0	 -20.0	 1.055654	 100.0	 1	 200.0	 65.15	 0.0	 0.0	 0.0	 0.0	 0.0	 0.0	 0.0	 0.0	 0.0	 0.0	 0.0;
	224	 132.555	 20.0	 60.0	 -20.0	 1.051105	 100.0	 1	 200.0	 65.11	 0.0	 0.0	 0.0	 0.0	 0.0	 0.0	 0.0	 0.0	 0.0	 0.0	 0.0;
	225	 132.555	 20.0	 60.0	 -20.0	 1.051105	 100.0	 1	 200.0	 65.11	 0.0	 0.0	 0.0	 0.0	 0.0	 0.0	 0.0	 0.0	 0.0	 0.0	 0.0;
	229	 57.01	 10.0	 30.0	 -10.0	 1.034441	 100.0	 1	 100.0	 14.02	 0.0	 0.0	 0.0	 0.0	 0.0	 0.0	 0.0	 0.0	 0.0	 0.0	 0.0;
	241	 850.0	 200.0	 520.0	 -120.0	 1.037622	 100.0	 1	 1300.0	 400.0	 0.0	 0.0	 0.0	 0.0	 0.0	 0.0	 0.0	 0.0	 0.0	 0.0	 0.0;
	243	 60.81	 10.0	 30.0	 -10.0	 1.053647	 100.0	 1	 100.0	 21.62	 0.0	 0.0	 0.0	 0.0	 0.0	 0.0	 0.0	 0.0	 0.0	 0.0	 0.0;
	248	 58.795	 10.0	 30.0	 -10.0	 1.026279	 100.0	 1	 100.0	 17.59	 0.0	 0.0	 0.0	 0.0	 0.0	 0.0	 0.0	 0.0	 0.0	 0.0	 0.0;
	250	 250.0	 60.0	 160.0	 -40.0	 1.012099	 100.0	 1	 400.0	 100.0	 0.0	 0.0	 0.0	 0.0	 0.0	 0.0	 0.0	 0.0	 0.0	 0.0	 0.0;
	258	 52.735	 0.0	 10.0	 -10.0	 0.955439	 100.0	 1	 100.0	 5.47	 0.0	 0.0	 0.0	 0.0	 0.0	 0.0	 0.0	 0.0	 0.0	 0.0	 0.0;
	259	 62.835	 10.0	 30.0	 -10.0	 1.03425	 100.0	 1	 100.0	 25.67	 0.0	 0.0	 0.0	 0.0	 0.0	 0.0	 0.0	 0.0	 0.0	 0.0	 0.0;
	266	 59.495	 10.0	 30.0	 -10.0	 1.005915	 100.0	 1	 100.0	 18.99	 0.0	 0.0	 0.0	 0.0	 0.0	 0.0	 0.0	 0.0	 0.0	 0.0	 0.0;
	270	 56.135	 0.0	 20.0	 -20.0	 1.003342	 100.0	 1	 100.0	 12.27	 0.0	 0.0	 0.0	 0.0	 0.0	 0.0	 0.0	 0.0	 0.0	 0.0	 0.0;
	271	 850.0	 200.0	 520.0	 -120.0	 1.053159	 100.0	 1	 1300.0	 400.0	 0.0	 0.0	 0.0	 0.0	 0.0	 0.0	 0.0	 0.0	 0.0	 0.0	 0.0;
	273	 850.0	 200.0	 520.0	 -120.0	 1.051456	 100.0	 1	 1300.0	 400.0	 0.0	 0.0	 0.0	 0.0	 0.0	 0.0	 0.0	 0.0	 0.0	 0.0	 0.0;
	274	 850.0	 200.0	 520.0	 -120.0	 1.051088	 100.0	 1	 1300.0	 400.0	 0.0	 0.0	 0.0	 0.0	 0.0	 0.0	 0.0	 0.0	 0.0	 0.0	 0.0;
	275	 850.0	 200.0	 520.0	 -120.0	 1.051088	 100.0	 1	 1300.0	 400.0	 0.0	 0.0	 0.0	 0.0	 0.0	 0.0	 0.0	 0.0	 0.0	 0.0	 0.0;
	276	 850.0	 200.0	 520.0	 -120.0	 1.050379	 100.0	 1	 1300.0	 400.0	 0.0	 0.0	 0.0	 0.0	 0.0	 0.0	 0.0	 0.0	 0.0	 0.0	 0.0;
	278	 850.0	 65.0	 320.0	 -190.0	 0.960771	 100.0	 1	 1300.0	 400.0	 0.0	 0.0	 0.0	 0.0	 0.0	 0.0	 0.0	 0.0	 0.0	 0.0	 0.0;
	283	 52.665	 0.0	 10.0	 -10.0	 1.000621	 100.0	 1	 100.0	 5.33	 0.0	 0.0	 0.0	 0.0	 0.0	 0.0	 0.0	 0.0	 0.0	 0.0	 0.0;
	289	 62.3	 10.0	 30.0	 -10.0	 1.040289	 100.0	 1	 100.0	 24.6	 0.0	 0.0	 0.0	 0.0	 0.0	 0.0	 0.0	 0.0	 0.0	 0.0	 0.0;
	294	 130.935	 0.0	 50.0	 -50.0	 0.999187	 100.0	 1	 200.0	 61.87	 0.0	 0.0	 0.0	 0.0	 0.0	 0.0	 0.0	 0.0	 0.0	 0.0	 0.0;
	296	 57.0	 0.0	 10.0	 -10.0	 0.989117	 100.0	 1	 100.0	 14.0	 0.0	 0.0	 0.0	 0.0	 0.0	 0.0	 0.0	 0.0	 0.0	 0.0	 0.0;
	299	 250.0	 35.0	 100.0	 -30.0	 0.993468	 100.0	 1	 400.0	 100.0	 0.0	 0.0	 0.0	 0.0	 0.0	 0.0	 0.0	 0.0	 0.0	 0.0	 0.0;
	304	 63.325	 10.0	 30.0	 -10.0	 1.037997	 100.0	 1	 100.0	 26.65	 0.0	 0.0	 0.0	 0.0	 0.0	 0.0	 0.0	 0.0	 0.0	 0.0	 0.0;
	305	 59.245	 10.0	 30.0	 -10.0	 1.030407	 100.0	 1	 100.0	 18.49	 0.0	 0.0	 0.0	 0.0	 0.0	 0.0	 0.0	 0.0	 0.0	 0.0	 0.0;
	306	 59.245	 10.0	 30.0	 -10.0	 1.030407	 100.0	 1	 100.0	 18.49	 0.0	 0.0	 0.0	 0.0	 0.0	 0.0	 0.0	 0.0	 0.0	 0.0	 0.0;
	307	 55.885	 10.0	 30.0	 -10.0	 1.049321	 100.0	 1	 100.0	 11.77	 0.0	 0.0	 0.0	 0.0	 0.0	 0.0	 0.0	 0.0	 0.0	 0.0	 0.0;
	308	 55.885	 10.0	 30.0	 -10.0	 1.049321	 100.0	 1	 100.0	 11.77	 0.0	 0.0	 0.0	 0.0	 0.0	 0.0	 0.0	 0.0	 0.0	 0.0	 0.0;
	309	 60.695	 10.0	 30.0	 -10.0	 1.05655	 100.0	 1	 100.0	 21.39	 0.0	 0.0	 0.0	 0.0	 0.0	 0.0	 0.0	 0.0	 0.0	 0.0	 0.0;
	310	 60.695	 10.0	 30.0	 -10.0	 1.05655	 100.0	 1	 100.0	 21.39	 0.0	 0.0	 0.0	 0.0	 0.0	 0.0	 0.0	 0.0	 0.0	 0.0	 0.0;
	311	 60.695	 10.0	 30.0	 -10.0	 1.05655	 100.0	 1	 100.0	 21.39	 0.0	 0.0	 0.0	 0.0	 0.0	 0.0	 0.0	 0.0	 0.0	 0.0	 0.0;
	312	 60.695	 10.0	 30.0	 -10.0	 1.05655	 100.0	 1	 100.0	 21.39	 0.0	 0.0	 0.0	 0.0	 0.0	 0.0	 0.0	 0.0	 0.0	 0.0	 0.0;
	315	 50.685	 0.0	 10.0	 -10.0	 1.021202	 100.0	 1	 100.0	 1.37	 0.0	 0.0	 0.0	 0.0	 0.0	 0.0	 0.0	 0.0	 0.0	 0.0	 0.0;
	323	 550.0	 200.0	 520.0	 -120.0	 1.016993	 100.0	 1	 900.0	 200.0	 0.0	 0.0	 0.0	 0.0	 0.0	 0.0	 0.0	 0.0	 0.0	 0.0	 0.0;
	324	 51.665	 0.0	 10.0	 -10.0	 1.024179	 100.0	 1	 100.0	 3.33	 0.0	 0.0	 0.0	 0.0	 0.0	 0.0	 0.0	 0.0	 0.0	 0.0	 0.0;
	325	 51.6	 0.0	 10.0	 -10.0	 0.996355	 100.0	 1	 100.0	 3.2	 0.0	 0.0	 0.0	 0.0	 0.0	 0.0	 0.0	 0.0	 0.0	 0.0	 0.0;
	328	 118.18	 15.0	 40.0	 -10.0	 1.023168	 100.0	 1	 200.0	 36.36	 0.0	 0.0	 0.0	 0.0	 0.0	 0.0	 0.0	 0.0	 0.0	 0.0	 0.0;
	331	 59.205	 5.0	 30.0	 -20.0	 1.006233	 100.0	 1	 100.0	 18.41	 0.0	 0.0	 0.0	 0.0	 0.0	 0.0	 0.0	 0.0	 0.0	 0.0	 0.0;
	332	 50.665	 0.0	 10.0	 -10.0	 0.996766	 100.0	 1	 100.0	 1.33	 0.0	 0.0	 0.0	 0.0	 0.0	 0.0	 0.0	 0.0	 0.0	 0.0	 0.0;
	336	 55.36	 0.0	 10.0	 -10.0	 1.010862	 100.0	 1	 100.0	 10.72	 0.0	 0.0	 0.0	 0.0	 0.0	 0.0	 0.0	 0.0	 0.0	 0.0	 0.0;
	338	 55.36	 0.0	 10.0	 -10.0	 1.00038	 100.0	 1	 100.0	 10.72	 0.0	 0.0	 0.0	 0.0	 0.0	 0.0	 0.0	 0.0	 0.0	 0.0	 0.0;
	345	 450.0	 80.0	 210.0	 -50.0	 1.030395	 100.0	 1	 700.0	 200.0	 0.0	 0.0	 0.0	 0.0	 0.0	 0.0	 0.0	 0.0	 0.0	 0.0	 0.0;
	346	 450.0	 80.0	 210.0	 -50.0	 1.030395	 100.0	 1	 700.0	 200.0	 0.0	 0.0	 0.0	 0.0	 0.0	 0.0	 0.0	 0.0	 0.0	 0.0	 0.0;
	351	 250.0	 80.0	 210.0	 -50.0	 1.024484	 100.0	 1	 400.0	 100.0	 0.0	 0.0	 0.0	 0.0	 0.0	 0.0	 0.0	 0.0	 0.0	 0.0	 0.0;
	354	 62.14	 10.0	 30.0	 -10.0	 1.029166	 100.0	 1	 100.0	 24.28	 0.0	 0.0	 0.0	 0.0	 0.0	 0.0	 0.0	 0.0	 0.0	 0.0	 0.0;
	358	 250.0	 80.0	 210.0	 -50.0	 1.050725	 100.0	 1	 400.0	 100.0	 0.0	 0.0	 0.0	 0.0	 0.0	 0.0	 0.0	 0.0	 0.0	 0.0	 0.0;
	360	 128.04	 20.0	 60.0	 -20.0	 1.028641	 100.0	 1	 200.0	 56.08	 0.0	 0.0	 0.0	 0.0	 0.0	 0.0	 0.0	 0.0	 0.0	 0.0	 0.0;
	361	 128.04	 20.0	 60.0	 -20.0	 1.028641	 100.0	 1	 200.0	 56.08	 0.0	 0.0	 0.0	 0.0	 0.0	 0.0	 0.0	 0.0	 0.0	 0.0	 0.0;
	362	 128.04	 20.0	 60.0	 -20.0	 1.028641	 100.0	 1	 200.0	 56.08	 0.0	 0.0	 0.0	 0.0	 0.0	 0.0	 0.0	 0.0	 0.0	 0.0	 0.0;
	363	 128.04	 20.0	 60.0	 -20.0	 1.028641	 100.0	 1	 200.0	 56.08	 0.0	 0.0	 0.0	 0.0	 0.0	 0.0	 0.0	 0.0	 0.0	 0.0	 0.0;
	364	 51.75	 0.0	 10.0	 -10.0	 1.00564	 100.0	 1	 100.0	 3.5	 0.0	 0.0	 0.0	 0.0	 0.0	 0.0	 0.0	 0.0	 0.0	 0.0	 0.0;
	365	 131.735	 40.0	 110.0	 -30.0	 0.997585	 100.0	 1	 200.0	 63.47	 0.0	 0.0	 0.0	 0.0	 0.0	 0.0	 0.0	 0.0	 0.0	 0.0	 0.0;
	368	 128.04	 20.0	 60.0	 -20.0	 1.028641	 100.0	 1	 200.0	 56.08	 0.0	 0.0	 0.0	 0.0	 0.0	 0.0	 0.0	 0.0	 0.0	 0.0	 0.0;
	369	 128.04	 20.0	 60.0	 -20.0	 1.028641	 100.0	 1	 200.0	 56.08	 0.0	 0.0	 0.0	 0.0	 0.0	 0.0	 0.0	 0.0	 0.0	 0.0	 0.0;
	382	 184.01	 20.0	 60.0	 -20.0	 0.990596	 100.0	 1	 300.0	 68.02	 0.0	 0.0	 0.0	 0.0	 0.0	 0.0	 0.0	 0.0	 0.0	 0.0	 0.0;
	383	 184.08	 20.0	 60.0	 -20.0	 1.012482	 100.0	 1	 300.0	 68.16	 0.0	 0.0	 0.0	 0.0	 0.0	 0.0	 0.0	 0.0	 0.0	 0.0	 0.0;
	392	 50.345	 0.0	 10.0	 -10.0	 1.030636	 100.0	 1	 100.0	 0.69	 0.0	 0.0	 0.0	 0.0	 0.0	 0.0	 0.0	 0.0	 0.0	 0.0	 0.0;
	394	 62.635	 10.0	 30.0	 -10.0	 1.0326	 100.0	 1	 100.0	 25.27	 0.0	 0.0	 0.0	 0.0	 0.0	 0.0	 0.0	 0.0	 0.0	 0.0	 0.0;
	395	 62.41	 10.0	 30.0	 -10.0	 1.028283	 100.0	 1	 100.0	 24.82	 0.0	 0.0	 0.0	 0.0	 0.0	 0.0	 0.0	 0.0	 0.0	 0.0	 0.0;
	396	 128.425	 20.0	 60.0	 -20.0	 1.029542	 100.0	 1	 200.0	 56.85	 0.0	 0.0	 0.0	 0.0	 0.0	 0.0	 0.0	 0.0	 0.0	 0.0	 0.0;
	400	 131.5	 5.0	 50.0	 -40.0	 0.979015	 100.0	 1	 200.0	 63.0	 0.0	 0.0	 0.0	 0.0	 0.0	 0.0	 0.0	 0.0	 0.0	 0.0	 0.0;
	405	 61.215	 10.0	 30.0	 -10.0	 1.00773	 100.0	 1	 100.0	 22.43	 0.0	 0.0	 0.0	 0.0	 0.0	 0.0	 0.0	 0.0	 0.0	 0.0	 0.0;
	406	 61.215	 10.0	 30.0	 -10.0	 1.00773	 100.0	 1	 100.0	 22.43	 0.0	 0.0	 0.0	 0.0	 0.0	 0.0	 0.0	 0.0	 0.0	 0.0	 0.0;
	408	 61.64	 10.0	 30.0	 -10.0	 1.043492	 100.0	 1	 100.0	 23.28	 0.0	 0.0	 0.0	 0.0	 0.0	 0.0	 0.0	 0.0	 0.0	 0.0	 0.0;
	423	 50.33	 0.0	 10.0	 -10.0	 1.015919	 100.0	 1	 100.0	 0.66	 0.0	 0.0	 0.0	 0.0	 0.0	 0.0	 0.0	 0.0	 0.0	 0.0	 0.0;
	432	 51.5	 0.0	 10.0	 -10.0	 1.016602	 100.0	 1	 100.0	 3.0	 0.0	 0.0	 0.0	 0.0	 0.0	 0.0	 0.0	 0.0	 0.0	 0.0	 0.0;
	433	 60.015	 10.0	 30.0	 -10.0	 1.011489	 100.0	 1	 100.0	 20.03	 0.0	 0.0	 0.0	 0.0	 0.0	 0.0	 0.0	 0.0	 0.0	 0.0	 0.0;
	438	 56.045	 10.0	 30.0	 -10.0	 1.016716	 100.0	 1	 100.0	 12.09	 0.0	 0.0	 0.0	 0.0	 0.0	 0.0	 0.0	 0.0	 0.0	 0.0	 0.0;
	442	 60.45	 10.0	 30.0	 -10.0	 1.043357	 100.0	 1	 100.0	 20.9	 0.0	 0.0	 0.0	 0.0	 0.0	 0.0	 0.0	 0.0	 0.0	 0.0	 0.0;
	448	 58.405	 5.0	 20.0	 -10.0	 1.038795	 100.0	 1	 100.0	 16.81	 0.0	 0.0	 0.0	 0.0	 0.0	 0.0	 0.0	 0.0	 0.0	 0.0	 0.0;
	454	 52.785	 0.0	 10.0	 -10.0	 0.973833	 100.0	 1	 100.0	 5.57	 0.0	 0.0	 0.0	 0.0	 0.0	 0.0	 0.0	 0.0	 0.0	 0.0	 0.0;
	458	 60.425	 10.0	 30.0	 -10.0	 1.009892	 100.0	 1	 100.0	 20.85	 0.0	 0.0	 0.0	 0.0	 0.0	 0.0	 0.0	 0.0	 0.0	 0.0	 0.0;
	463	 36.68	 0.0	 100000.0	 -100000.0	 1.126642	 100.0	 1	 100.0	 -26.64	 0.0	 0.0	 0.0	 0.0	 0.0	 0.0	 0.0	 0.0	 0.0	 0.0	 0.0;
	470	 124.935	 20.0	 60.0	 -20.0	 1.046905	 100.0	 1	 200.0	 49.87	 0.0	 0.0	 0.0	 0.0	 0.0	 0.0	 0.0	 0.0	 0.0	 0.0	 0.0;
	476	 300.0	 80.0	 210.0	 -50.0	 1.029484	 100.0	 1	 500.0	 100.0	 0.0	 0.0	 0.0	 0.0	 0.0	 0.0	 0.0	 0.0	 0.0	 0.0	 0.0;
	477	 62.675	 10.0	 30.0	 -10.0	 1.043087	 100.0	 1	 100.0	 25.35	 0.0	 0.0	 0.0	 0.0	 0.0	 0.0	 0.0	 0.0	 0.0	 0.0	 0.0;
	480	 129.735	 20.0	 60.0	 -20.0	 1.033425	 100.0	 1	 200.0	 59.47	 0.0	 0.0	 0.0	 0.0	 0.0	 0.0	 0.0	 0.0	 0.0	 0.0	 0.0;
	481	 129.735	 20.0	 60.0	 -20.0	 1.033425	 100.0	 1	 200.0	 59.47	 0.0	 0.0	 0.0	 0.0	 0.0	 0.0	 0.0	 0.0	 0.0	 0.0	 0.0;
	482	 129.735	 20.0	 60.0	 -20.0	 1.033425	 100.0	 1	 200.0	 59.47	 0.0	 0.0	 0.0	 0.0	 0.0	 0.0	 0.0	 0.0	 0.0	 0.0	 0.0;
	483	 129.735	 20.0	 60.0	 -20.0	 1.033425	 100.0	 1	 200.0	 59.47	 0.0	 0.0	 0.0	 0.0	 0.0	 0.0	 0.0	 0.0	 0.0	 0.0	 0.0;
	485	 450.0	 80.0	 210.0	 -50.0	 1.059619	 100.0	 1	 700.0	 200.0	 0.0	 0.0	 0.0	 0.0	 0.0	 0.0	 0.0	 0.0	 0.0	 0.0	 0.0;
	492	 350.0	 80.0	 210.0	 -50.0	 1.041985	 100.0	 1	 600.0	 100.0	 0.0	 0.0	 0.0	 0.0	 0.0	 0.0	 0.0	 0.0	 0.0	 0.0	 0.0;
	496	 121.425	 20.0	 60.0	 -20.0	 1.00876	 100.0	 1	 200.0	 42.85	 0.0	 0.0	 0.0	 0.0	 0.0	 0.0	 0.0	 0.0	 0.0	 0.0	 0.0;
	508	 1150.0	 200.0	 520.0	 -120.0	 1.044776	 100.0	 1	 1800.0	 500.0	 0.0	 0.0	 0.0	 0.0	 0.0	 0.0	 0.0	 0.0	 0.0	 0.0	 0.0;
	509	 1150.0	 200.0	 520.0	 -120.0	 1.044388	 100.0	 1	 1800.0	 500.0	 0.0	 0.0	 0.0	 0.0	 0.0	 0.0	 0.0	 0.0	 0.0	 0.0	 0.0;
	510	 1150.0	 200.0	 520.0	 -120.0	 1.044096	 100.0	 1	 1800.0	 500.0	 0.0	 0.0	 0.0	 0.0	 0.0	 0.0	 0.0	 0.0	 0.0	 0.0	 0.0;
	514	 1150.0	 200.0	 520.0	 -120.0	 1.044511	 100.0	 1	 1800.0	 500.0	 0.0	 0.0	 0.0	 0.0	 0.0	 0.0	 0.0	 0.0	 0.0	 0.0	 0.0;
	516	 60.855	 10.0	 30.0	 -10.0	 1.041748	 100.0	 1	 100.0	 21.71	 0.0	 0.0	 0.0	 0.0	 0.0	 0.0	 0.0	 0.0	 0.0	 0.0	 0.0;
	528	 57.885	 10.0	 30.0	 -10.0	 1.020703	 100.0	 1	 100.0	 15.77	 0.0	 0.0	 0.0	 0.0	 0.0	 0.0	 0.0	 0.0	 0.0	 0.0	 0.0;
	531	 62.93	 10.0	 30.0	 -10.0	 1.035838	 100.0	 1	 100.0	 25.86	 0.0	 0.0	 0.0	 0.0	 0.0	 0.0	 0.0	 0.0	 0.0	 0.0	 0.0;
	532	 350.0	 80.0	 210.0	 -50.0	 1.036699	 100.0	 1	 600.0	 100.0	 0.0	 0.0	 0.0	 0.0	 0.0	 0.0	 0.0	 0.0	 0.0	 0.0	 0.0;
	533	 250.0	 60.0	 160.0	 -40.0	 1.016377	 100.0	 1	 400.0	 100.0	 0.0	 0.0	 0.0	 0.0	 0.0	 0.0	 0.0	 0.0	 0.0	 0.0	 0.0;
	539	 250.0	 25.0	 90.0	 -40.0	 0.993492	 100.0	 1	 400.0	 100.0	 0.0	 0.0	 0.0	 0.0	 0.0	 0.0	 0.0	 0.0	 0.0	 0.0	 0.0;
	552	 60.2	 0.0	 20.0	 -20.0	 0.99834	 100.0	 1	 100.0	 20.4	 0.0	 0.0	 0.0	 0.0	 0.0	 0.0	 0.0	 0.0	 0.0	 0.0	 0.0;
	559	 117.165	 0.0	 30.0	 -30.0	 0.954584	 100.0	 1	 200.0	 34.33	 0.0	 0.0	 0.0	 0.0	 0.0	 0.0	 0.0	 0.0	 0.0	 0.0	 0.0;
	564	 57.255	 10.0	 30.0	 -10.0	 1.024499	 100.0	 1	 100.0	 14.51	 0.0	 0.0	 0.0	 0.0	 0.0	 0.0	 0.0	 0.0	 0.0	 0.0	 0.0;
	572	 52.335	 0.0	 10.0	 -10.0	 1.004314	 100.0	 1	 100.0	 4.67	 0.0	 0.0	 0.0	 0.0	 0.0	 0.0	 0.0	 0.0	 0.0	 0.0	 0.0;
	575	 56.03	 10.0	 30.0	 -10.0	 1.016739	 100.0	 1	 100.0	 12.06	 0.0	 0.0	 0.0	 0.0	 0.0	 0.0	 0.0	 0.0	 0.0	 0.0	 0.0;
	576	 56.03	 10.0	 30.0	 -10.0	 1.016739	 100.0	 1	 100.0	 12.06	 0.0	 0.0	 0.0	 0.0	 0.0	 0.0	 0.0	 0.0	 0.0	 0.0	 0.0;
	577	 56.03	 10.0	 30.0	 -10.0	 1.016739	 100.0	 1	 100.0	 12.06	 0.0	 0.0	 0.0	 0.0	 0.0	 0.0	 0.0	 0.0	 0.0	 0.0	 0.0;
	581	 56.03	 10.0	 30.0	 -10.0	 1.016739	 100.0	 1	 100.0	 12.06	 0.0	 0.0	 0.0	 0.0	 0.0	 0.0	 0.0	 0.0	 0.0	 0.0	 0.0;
	585	 124.205	 20.0	 60.0	 -20.0	 1.041629	 100.0	 1	 200.0	 48.41	 0.0	 0.0	 0.0	 0.0	 0.0	 0.0	 0.0	 0.0	 0.0	 0.0	 0.0;
	589	 54.46	 0.0	 10.0	 -10.0	 1.00755	 100.0	 1	 100.0	 8.92	 0.0	 0.0	 0.0	 0.0	 0.0	 0.0	 0.0	 0.0	 0.0	 0.0	 0.0;
	610	 60.65	 10.0	 30.0	 -10.0	 1.019723	 100.0	 1	 100.0	 21.3	 0.0	 0.0	 0.0	 0.0	 0.0	 0.0	 0.0	 0.0	 0.0	 0.0	 0.0;
	614	 61.605	 15.0	 40.0	 -10.0	 1.031902	 100.0	 1	 100.0	 23.21	 0.0	 0.0	 0.0	 0.0	 0.0	 0.0	 0.0	 0.0	 0.0	 0.0	 0.0;
	615	 61.605	 15.0	 40.0	 -10.0	 1.031902	 100.0	 1	 100.0	 23.21	 0.0	 0.0	 0.0	 0.0	 0.0	 0.0	 0.0	 0.0	 0.0	 0.0	 0.0;
	619	 64.165	 15.0	 40.0	 -10.0	 1.031502	 100.0	 1	 100.0	 28.33	 0.0	 0.0	 0.0	 0.0	 0.0	 0.0	 0.0	 0.0	 0.0	 0.0	 0.0;
	621	 51.935	 0.0	 10.0	 -10.0	 1.003942	 100.0	 1	 100.0	 3.87	 0.0	 0.0	 0.0	 0.0	 0.0	 0.0	 0.0	 0.0	 0.0	 0.0	 0.0;
	623	 62.01	 10.0	 30.0	 -10.0	 1.045359	 100.0	 1	 100.0	 24.02	 0.0	 0.0	 0.0	 0.0	 0.0	 0.0	 0.0	 0.0	 0.0	 0.0	 0.0;
	626	 64.43	 20.0	 60.0	 -20.0	 1.035771	 100.0	 1	 100.0	 28.86	 0.0	 0.0	 0.0	 0.0	 0.0	 0.0	 0.0	 0.0	 0.0	 0.0	 0.0;
	635	 50.045	 0.0	 10.0	 -10.0	 1.023511	 100.0	 1	 100.0	 0.09	 0.0	 0.0	 0.0	 0.0	 0.0	 0.0	 0.0	 0.0	 0.0	 0.0	 0.0;
	637	 58.405	 10.0	 30.0	 -10.0	 1.04616	 100.0	 1	 100.0	 16.81	 0.0	 0.0	 0.0	 0.0	 0.0	 0.0	 0.0	 0.0	 0.0	 0.0	 0.0;
	646	 450.0	 80.0	 210.0	 -50.0	 1.030395	 100.0	 1	 700.0	 200.0	 0.0	 0.0	 0.0	 0.0	 0.0	 0.0	 0.0	 0.0	 0.0	 0.0	 0.0;
	648	 450.0	 80.0	 210.0	 -50.0	 1.007781	 100.0	 1	 700.0	 200.0	 0.0	 0.0	 0.0	 0.0	 0.0	 0.0	 0.0	 0.0	 0.0	 0.0	 0.0;
	649	 450.0	 80.0	 210.0	 -50.0	 1.030395	 100.0	 1	 700.0	 200.0	 0.0	 0.0	 0.0	 0.0	 0.0	 0.0	 0.0	 0.0	 0.0	 0.0	 0.0;
	651	 250.0	 80.0	 210.0	 -50.0	 1.028351	 100.0	 1	 400.0	 100.0	 0.0	 0.0	 0.0	 0.0	 0.0	 0.0	 0.0	 0.0	 0.0	 0.0	 0.0;
	652	 250.0	 80.0	 210.0	 -50.0	 1.028351	 100.0	 1	 400.0	 100.0	 0.0	 0.0	 0.0	 0.0	 0.0	 0.0	 0.0	 0.0	 0.0	 0.0	 0.0;
	654	 130.8	 20.0	 60.0	 -20.0	 1.014507	 100.0	 1	 200.0	 61.6	 0.0	 0.0	 0.0	 0.0	 0.0	 0.0	 0.0	 0.0	 0.0	 0.0	 0.0;
	660	 61.07	 10.0	 30.0	 -10.0	 1.022689	 100.0	 1	 100.0	 22.14	 0.0	 0.0	 0.0	 0.0	 0.0	 0.0	 0.0	 0.0	 0.0	 0.0	 0.0;
	666	 60.435	 10.0	 30.0	 -10.0	 1.018739	 100.0	 1	 100.0	 20.87	 0.0	 0.0	 0.0	 0.0	 0.0	 0.0	 0.0	 0.0	 0.0	 0.0	 0.0;
	671	 58.4	 5.0	 20.0	 -10.0	 0.999061	 100.0	 1	 100.0	 16.8	 0.0	 0.0	 0.0	 0.0	 0.0	 0.0	 0.0	 0.0	 0.0	 0.0	 0.0;
	676	 350.0	 60.0	 160.0	 -40.0	 1.018066	 100.0	 1	 600.0	 100.0	 0.0	 0.0	 0.0	 0.0	 0.0	 0.0	 0.0	 0.0	 0.0	 0.0	 0.0;
	681	 128.225	 20.0	 60.0	 -20.0	 1.00657	 100.0	 1	 200.0	 56.45	 0.0	 0.0	 0.0	 0.0	 0.0	 0.0	 0.0	 0.0	 0.0	 0.0	 0.0;
	684	 122.965	 20.0	 60.0	 -20.0	 1.035618	 100.0	 1	 200.0	 45.93	 0.0	 0.0	 0.0	 0.0	 0.0	 0.0	 0.0	 0.0	 0.0	 0.0	 0.0;
	693	 300.0	 60.0	 160.0	 -40.0	 1.038999	 100.0	 1	 500.0	 100.0	 0.0	 0.0	 0.0	 0.0	 0.0	 0.0	 0.0	 0.0	 0.0	 0.0	 0.0;
	695	 52.8	 0.0	 10.0	 -10.0	 1.010516	 100.0	 1	 100.0	 5.6	 0.0	 0.0	 0.0	 0.0	 0.0	 0.0	 0.0	 0.0	 0.0	 0.0	 0.0;
	698	 58.905	 5.0	 20.0	 -10.0	 1.018527	 100.0	 1	 100.0	 17.81	 0.0	 0.0	 0.0	 0.0	 0.0	 0.0	 0.0	 0.0	 0.0	 0.0	 0.0;
	709	 850.0	 200.0	 520.0	 -120.0	 1.051727	 100.0	 1	 1300.0	 400.0	 0.0	 0.0	 0.0	 0.0	 0.0	 0.0	 0.0	 0.0	 0.0	 0.0	 0.0;
	715	 57.965	 10.0	 30.0	 -10.0	 1.007844	 100.0	 1	 100.0	 15.93	 0.0	 0.0	 0.0	 0.0	 0.0	 0.0	 0.0	 0.0	 0.0	 0.0	 0.0;
	717	 57.705	 5.0	 10.0	 0.0	 1.027572	 100.0	 1	 100.0	 15.41	 0.0	 0.0	 0.0	 0.0	 0.0	 0.0	 0.0	 0.0	 0.0	 0.0	 0.0;
	721	 124.785	 20.0	 60.0	 -20.0	 0.992442	 100.0	 1	 200.0	 49.57	 0.0	 0.0	 0.0	 0.0	 0.0	 0.0	 0.0	 0.0	 0.0	 0.0	 0.0;
	724	 61.835	 10.0	 30.0	 -10.0	 1.045213	 100.0	 1	 100.0	 23.67	 0.0	 0.0	 0.0	 0.0	 0.0	 0.0	 0.0	 0.0	 0.0	 0.0	 0.0;
	730	 132.82	 20.0	 60.0	 -20.0	 1.01458	 100.0	 1	 200.0	 65.64	 0.0	 0.0	 0.0	 0.0	 0.0	 0.0	 0.0	 0.0	 0.0	 0.0	 0.0;
	731	 132.82	 20.0	 60.0	 -20.0	 1.01458	 100.0	 1	 200.0	 65.64	 0.0	 0.0	 0.0	 0.0	 0.0	 0.0	 0.0	 0.0	 0.0	 0.0	 0.0;
	732	 132.82	 20.0	 60.0	 -20.0	 1.01458	 100.0	 1	 200.0	 65.64	 0.0	 0.0	 0.0	 0.0	 0.0	 0.0	 0.0	 0.0	 0.0	 0.0	 0.0;
	734	 132.82	 20.0	 60.0	 -20.0	 1.01458	 100.0	 1	 200.0	 65.64	 0.0	 0.0	 0.0	 0.0	 0.0	 0.0	 0.0	 0.0	 0.0	 0.0	 0.0;
	746	 55.335	 0.0	 10.0	 -10.0	 0.994194	 100.0	 1	 100.0	 10.67	 0.0	 0.0	 0.0	 0.0	 0.0	 0.0	 0.0	 0.0	 0.0	 0.0	 0.0;
	749	 57.525	 10.0	 30.0	 -10.0	 1.009791	 100.0	 1	 100.0	 15.05	 0.0	 0.0	 0.0	 0.0	 0.0	 0.0	 0.0	 0.0	 0.0	 0.0	 0.0;
	750	 57.525	 10.0	 30.0	 -10.0	 1.009791	 100.0	 1	 100.0	 15.05	 0.0	 0.0	 0.0	 0.0	 0.0	 0.0	 0.0	 0.0	 0.0	 0.0	 0.0;
	751	 57.525	 10.0	 30.0	 -10.0	 1.009791	 100.0	 1	 100.0	 15.05	 0.0	 0.0	 0.0	 0.0	 0.0	 0.0	 0.0	 0.0	 0.0	 0.0	 0.0;
	753	 56.88	 10.0	 30.0	 -10.0	 1.018866	 100.0	 1	 100.0	 13.76	 0.0	 0.0	 0.0	 0.0	 0.0	 0.0	 0.0	 0.0	 0.0	 0.0	 0.0;
	754	 121.55	 20.0	 60.0	 -20.0	 1.009683	 100.0	 1	 200.0	 43.1	 0.0	 0.0	 0.0	 0.0	 0.0	 0.0	 0.0	 0.0	 0.0	 0.0	 0.0;
	765	 126.125	 20.0	 60.0	 -20.0	 1.032985	 100.0	 1	 200.0	 52.25	 0.0	 0.0	 0.0	 0.0	 0.0	 0.0	 0.0	 0.0	 0.0	 0.0	 0.0;
...
];

%% generator cost data
%	2	startup	shutdown	n	c(n-1)	...	c0
mpc.gencost = [
	2	 0.0	 0.0	 3	   0.000000	  40.494755	   0.000000;
	2	 0.0	 0.0	 3	   0.000000	  42.419990	   0.000000;
	2	 0.0	 0.0	 3	   0.000000	  49.348588	   0.000000;
	2	 0.0	 0.0	 3	   0.000000	  61.166477	   0.000000;
	2	 0.0	 0.0	 3	   0.000000	  40.981959	   0.000000;
	2	 0.0	 0.0	 3	   0.000000	  25.558838	   0.000000;
	2	 0.0	 0.0	 3	   0.000000	  25.751054	   0.000000;
	2	 0.0	 0.0	 3	   0.000000	  51.585852	   0.000000;
	2	 0.0	 0.0	 3	   0.000000	  32.342661	   0.000000;
	2	 0.0	 0.0	 3	   0.000000	  37.599833	   0.000000;
	2	 0.0	 0.0	 3	   0.000000	  12.266695	   0.000000;
	2	 0.0	 0.0	 3	   0.000000	  20.790996	   0.000000;
	2	 0.0	 0.0	 3	   0.000000	  39.128895	   0.000000;
	2	 0.0	 0.0	 3	   0.000000	  37.924434	   0.000000;
	2	 0.0	 0.0	 3	   0.000000	  54.817083	   0.000000;
	2	 0.0	 0.0	 3	   0.000000	  60.178038	   0.000000;
	2	 0.0	 0.0	 3	   0.000000	  62.363883	   0.000000;
	2	 0.0	 0.0	 3	   0.000000	  27.014212	   0.000000;
	2	 0.0	 0.0	 3	   0.000000	  46.542610	   0.000000;
	2	 0.0	 0.0	 3	   0.000000	  44.165126	   0.000000;
	2	 0.0	 0.0	 3	   0.000000	  39.054327	   0.000000;
	2	 0.0	 0.0	 3	   0.000000	  46.833103	   0.000000;
	2	 0.0	 0.0	 3	   0.000000	  31.812579	   0.000000;
	2	 0.0	 0.0	 3	   0.000000	  56.658483	   0.000000;
	2	 0.0	 0.0	 3	   0.000000	  59.994828	   0.000000;
	2	 0.0	 0.0	 3	   0.000000	  49.922666	   0.000000;
	2	 0.0	 0.0	 3	   0.000000	  36.124647	   0.000000;
	2	 0.0	 0.0	 3	   0.000000	  36.015935	   0.000000;
	2	 0.0	 0.0	 3	   0.000000	  48.633708	   0.000000;
	2	 0.0	 0.0	 3	   0.000000	  35.659648	   0.000000;
	2	 0.0	 0.0	 3	   0.000000	  46.703140	   0.000000;
	2	 0.0	 0.0	 3	   0.000000	  48.409517	   0.000000;
	2	 0.0	 0.0	 3	   0.000000	  30.631666	   0.000000;
	2	 0.0	 0.0	 3	   0.000000	  20.064159	   0.000000;
	2	 0.0	 0.0	 3	   0.000000	  29.501153	   0.000000;
	2	 0.0	 0.0	 3	   0.000000	  39.340371	   0.000000;
	2	 0.0	 0.0	 3	   0.000000	  42.354354	   0.000000;
	2	 0.0	 0.0	 3	   0.000000	  47.323538	   0.000000;
	2	 0.0	 0.0	 3	   0.000000	  55.430620	   0.000000;
	2	 0.0	 0.0	 3	   0.000000	  24.067239	   0.000000;
	2	 0.0	 0.0	 3	   0.000000	  33.047253	   0.000000;
	2	 0.0	 0.0	 3	   0.000000	  34.613297	   0.000000;
	2	 0.0	 0.0	 3	   0.000000	  60.309346	   0.000000;
	2	 0.0	 0.0	 3	   0.000000	  46.255307	   0.000000;
	2	 0.0	 0.0	 3	   0.000000	   7.193005	   0.000000;
	2	 0.0	 0.0	 3	   0.000000	  51.023287	   0.000000;
	2	 0.0	 0.0	 3	   0.000000	  38.461525	   0.000000;
	2	 0.0	 0.0	 3	   0.000000	  15.115258	   0.000000;
	2	 0.0	 0.0	 3	   0.000000	  49.255512	   0.000000;
	2	 0.0	 0.0	 3	   0.000000	  36.332863	   0.000000;
	2	 0.0	 0.0	 3	   0.000000	  52.079593	   0.000000;
	2	 0.0	 0.0	 3	   0.000000	  40.842153	   0.000000;
	2	 0.0	 0.0	 3	   0.000000	  28.470658	   0.000000;
	2	 0.0	 0.0	 3	   0.000000	  52.019401	   0.000000;
	2	 0.0	 0.0	 3	   0.000000	  39.914246	   0.000000;
	2	 0.0	 0.0	 3	   0.000000	  32.524900	   0.000000;
	2	 0.0	 0.0	 3	   0.000000	  32.251572	   0.000000;
	2	 0.0	 0.0	 3	   0.000000	  51.724235	   0.000000;
	2	 0.0	 0.0	 3	   0.000000	  56.057024	   0.000000;
	2	 0.0	 0.0	 3	   0.000000	  29.542650	   0.000000;
	2	 0.0	 0.0	 3	   0.000000	  18.649255	   0.000000;
	2	 0.0	 0.0	 3	   0.000000	  22.197811	   0.000000;
	2	 0.0	 0.0	 3	   0.000000	  65.380433	   0.000000;
	2	 0.0	 0.0	 3	   0.000000	  38.001200	   0.000000;
	2	 0.0	 0.0	 3	   0.000000	  28.466461	   0.000000;
	2	 0.0	 0.0	 3	   0.000000	  64.202512	   0.000000;
	2	 0.0	 0.0	 3	   0.000000	  55.343521	   0.000000;
	2	 0.0	 0.0	 3	   0.000000	  51.322459	   0.000000;
	2	 0.0	 0.0	 3	   0.000000	  45.248308	   0.000000;
	2	 0.0	 0.0	 3	   0.000000	  50.631504	   0.000000;
	2	 0.0	 0.0	 3	   0.000000	  29.088154	   0.000000;
	2	 0.0	 0.0	 3	   0.000000	  36.567524	   0.000000;
	2	 0.0	 0.0	 3	   0.000000	  54.908931	   0.000000;
	2	 0.0	 0.0	 3	   0.000000	  11.681238	   0.000000;
	2	 0.0	 0.0	 3	   0.000000	  19.206319	   0.000000;
	2	 0.0	 0.0	 3	   0.000000	  58.015156	   0.000000;
	2	 0.0	 0.0	 3	   0.000000	  25.441709	   0.000000;
	2	 0.0	 0.0	 3	   0.000000	  38.737557	   0.000000;
	2	 0.0	 0.0	 3	   0.000000	  28.348266	   0.000000;
	2	 0.0	 0.0	 3	   0.000000	  40.882355	   0.000000;
	2	 0.0	 0.0	 3	   0.000000	  40.225585	   0.000000;
	2	 0.0	 0.0	 3	   0.000000	  36.743382	   0.000000;
	2	 0.0	 0.0	 3	   0.000000	  23.962838	   0.000000;
	2	 0.0	 0.0	 3	   0.000000	  27.147616	   0.000000;
	2	 0.0	 0.0	 3	   0.000000	  42.508398	   0.000000;
	2	 0.0	 0.0	 3	   0.000000	  64.281667	   0.000000;
	2	 0.0	 0.0	 3	   0.000000	  65.646146	   0.000000;
	2	 0.0	 0.0	 3	   0.000000	  50.033486	   0.000000;
	2	 0.0	 0.0	 3	   0.000000	  52.947238	   0.000000;
	2	 0.0	 0.0	 3	   0.000000	  27.805956	   0.000000;
	2	 0.0	 0.0	 3	   0.000000	  11.394005	   0.000000;
	2	 0.0	 0.0	 3	   0.000000	  53.632413	   0.000000;
	2	 0.0	 0.0	 3	   0.000000	  30.868388	   0.000000;
	2	 0.0	 0.0	 3	   0.000000	  34.593837	   0.000000;
	2	 0.0	 0.0	 3	   0.000000	  38.892976	   0.000000;
	2	 0.0	 0.0	 3	   0.000000	  40.068495	   0.000000;
	2	 0.0	 0.0	 3	   0.000000	  48.614174	   0.000000;
	2	 0.0	 0.0	 3	   0.000000	  37.718902	   0.000000;
	2	 0.0	 0.0	 3	   0.000000	   5.145970	   0.000000;
	2	 0.0	 0.0	 3	   0.000000	  38.104707	   0.000000;
	2	 0.0	 0.0	 3	   0.000000	  29.805069	   0.000000;
	2	 0.0	 0.0	 3	   0.000000	  37.511351	   0.000000;
	2	 0.0	 0.0	 3	   0.000000	  48.530365	   0.000000;
	2	 0.0	 0.0	 3	   0.000000	  53.744572	   0.000000;
	2	 0.0	 0.0	 3	   0.000000	  53.026660	   0.000000;
	2	 0.0	 0.0	 3	   0.000000	  54.321702	   0.000000;
	2	 0.0	 0.0	 3	   0.000000	  31.817114	   0.000000;
	2	 0.0	 0.0	 3	   0.000000	  41.615810	   0.000000;
	2	 0.0	 0.0	 3	   0.000000	  53.929917	   0.000000;
	2	 0.0	 0.0	 3	   0.000000	  43.859099	   0.000000;
	2	 0.0	 0.0	 3	   0.000000	  57.475961	   0.000000;
	2	 0.0	 0.0	 3	   0.000000	  34.993612	   0.000000;
	2	 0.0	 0.0	 3	   0.000000	  42.295790	   0.000000;
	2	 0.0	 0.0	 3	   0.000000	  38.742613	   0.000000;
	2	 0.0	 0.0	 3	   0.000000	  34.605904	   0.000000;
	2	 0.0	 0.0	 3	   0.000000	  21.622912	   0.000000;
	2	 0.0	 0.0	 3	   0.000000	  45.776335	   0.000000;
	2	 0.0	 0.0	 3	   0.000000	  38.583862	   0.000000;
	2	 0.0	 0.0	 3	   0.000000	  45.099965	   0.000000;
	2	 0.0	 0.0	 3	   0.000000	  41.258108	   0.000000;
	2	 0.0	 0.0	 3	   0.000000	  21.062616	   0.000000;
	2	 0.0	 0.0	 3	   0.000000	  26.481068	   0.000000;
	2	 0.0	 0.0	 3	   0.000000	  18.348701	   0.000000;
	2	 0.0	 0.0	 3	   0.000000	  25.413791	   0.000000;
	2	 0.0	 0.0	 3	   0.000000	  36.916275	   0.000000;
	2	 0.0	 0.0	 3	   0.000000	  23.502038	   0.000000;
	2	 0.0	 0.0	 3	   0.000000	  37.360456	   0.000000;
	2	 0.0	 0.0	 3	   0.000000	  39.677010	   0.000000;
	2	 0.0	 0.0	 3	   0.000000	  44.735290	   0.000000;
	2	 0.0	 0.0	 3	   0.000000	  48.190758	   0.000000;
	2	 0.0	 0.0	 3	   0.000000	  52.190463	   0.000000;
	2	 0.0	 0.0	 3	   0.000000	  33.465744	   0.000000;
	2	 0.0	 0.0	 3	   0.000000	  53.139678	   0.000000;
	2	 0.0	 0.0	 3	   0.000000	  32.767116	   0.000000;
	2	 0.0	 0.0	 3	   0.000000	  45.465820	   0.000000;
	2	 0.0	 0.0	 3	   0.000000	  61.885229	   0.000000;
	2	 0.0	 0.0	 3	   0.000000	  47.874327	   0.000000;
	2	 0.0	 0.0	 3	   0.000000	  31.776344	   0.000000;
	2	 0.0	 0.0	 3	   0.000000	  49.952315	   0.000000;
	2	 0.0	 0.0	 3	   0.000000	  48.449968	   0.000000;
	2	 0.0	 0.0	 3	   0.000000	   8.075265	   0.000000;
	2	 0.0	 0.0	 3	   0.000000	  28.805344	   0.000000;
	2	 0.0	 0.0	 3	   0.000000	   8.000659	   0.000000;
	2	 0.0	 0.0	 3	   0.000000	  32.086716	   0.000000;
	2	 0.0	 0.0	 3	   0.000000	  48.493508	   0.000000;
	2	 0.0	 0.0	 3	   0.000000	  31.489933	   0.000000;
	2	 0.0	 0.0	 3	   0.000000	  25.892150	   0.000000;
	2	 0.0	 0.0	 3	   0.000000	  65.026626	   0.000000;
	2	 0.0	 0.0	 3	   0.000000	  44.996658	   0.000000;
	2	 0.0	 0.0	 3	   0.000000	  44.669941	   0.000000;
	2	 0.0	 0.0	 3	   0.000000	  45.660886	   0.000000;
	2	 0.0	 0.0	 3	   0.000000	  45.136107	   0.000000;
	2	 0.0	 0.0	 3	   0.000000	  45.717086	   0.000000;
	2	 0.0	 0.0	 3	   0.000000	  32.761693	   0.000000;
	2	 0.0	 0.0	 3	   0.000000	  62.283634	   0.000000;
	2	 0.0	 0.0	 3	   0.000000	  26.959694	   0.000000;
	2	 0.0	 0.0	 3	   0.000000	  41.992112	   0.000000;
	2	 0.0	 0.0	 3	   0.000000	  43.608166	   0.000000;
	2	 0.0	 0.0	 3	   0.000000	  21.053626	   0.000000;
	2	 0.0	 0.0	 3	   0.000000	  45.115144	   0.000000;
	2	 0.0	 0.0	 3	   0.000000	  14.963321	   0.000000;
	2	 0.0	 0.0	 3	   0.000000	  60.582607	   0.000000;
	2	 0.0	 0.0	 3	   0.000000	  69.902619	   0.000000;
	2	 0.0	 0.0	 3	   0.000000	  55.675675	   0.000000;
	2	 0.0	 0.0	 3	   0.000000	  27.930461	   0.000000;
	2	 0.0	 0.0	 3	   0.000000	  23.687206	   0.000000;
	2	 0.0	 0.0	 3	   0.000000	  48.656554	   0.000000;
	2	 0.0	 0.0	 3	   0.000000	  29.334713	   0.000000;
	2	 0.0	 0.0	 3	   0.000000	  46.772459	   0.000000;
	2	 0.0	 0.0	 3	   0.000000	  22.977231	   0.000000;
	2	 0.0	 0.0	 3	   0.000000	  18.509505	   0.000000;
	2	 0.0	 0.0	 3	   0.000000	  18.775879	   0.000000;
	2	 0.0	 0.0	 3	   0.000000	  43.885024	   0.000000;
	2	 0.0	 0.0	 3	   0.000000	  27.714320	   0.000000;
	2	 0.0	 0.0	 3	   0.000000	  23.585823	   0.000000;
	2	 0.0	 0.0	 3	   0.000000	  21.128875	   0.000000;
	2	 0.0	 0.0	 3	   0.000000	  37.813529	   0.000000;
	2	 0.0	 0.0	 3	   0.000000	  42.982560	   0.000000;
	2	 0.0	 0.0	 3	   0.000000	   7.572580	   0.000000;
	2	 0.0	 0.0	 3	   0.000000	  37.134984	   0.000000;
	2	 0.0	 0.0	 3	   0.000000	  43.903986	   0.000000;
	2	 0.0	 0.0	 3	   0.000000	  27.616931	   0.000000;
	2	 0.0	 0.0	 3	   0.000000	  44.314906	   0.000000;
	2	 0.0	 0.0	 3	   0.000000	  44.590212	   0.000000;
	2	 0.0	 0.0	 3	   0.000000	  15.855969	   0.000000;
	2	 0.0	 0.0	 3	   0.000000	  49.069970	   0.000000;
	2	 0.0	 0.0	 3	   0.000000	  26.365216	   0.000000;
	2	 0.0	 0.0	 3	   0.000000	  49.597034	   0.000000;
	2	 0.0	 0.0	 3	   0.000000	  30.957724	   0.000000;
	2	 0.0	 0.0	 3	   0.000000	  39.679476	   0.000000;
	2	 0.0	 0.0	 3	   0.000000	  53.055506	   0.000000;
	2	 0.0	 0.0	 3	   0.000000	  61.522271	   0.000000;
	2	 0.0	 0.0	 3	   0.000000	  28.728858	   0.000000;
	2	 0.0	 0.0	 3	   0.000000	  43.563894	   0.000000;
	2	 0.0	 0.0	 3	   0.000000	  47.767080	   0.000000;
	2	 0.0	 0.0	 3	   0.000000	  39.205142	   0.000000;
	2	 0.0	 0.0	 3	   0.000000	  53.972892	   0.000000;
	2	 0.0	 0.0	 3	   0.000000	  40.709601	   0.000000;
	2	 0.0	 0.0	 3	   0.000000	  52.103668	   0.000000;
	2	 0.0	 0.0	 3	   0.000000	  59.039131	   0.000000;
...
];

%% branch data
%	fbus	tbus	r	x	b	rateA	rateB	rateC	ratio	angle	status	angmin	angmax
mpc.branch = [
	7519	 4482	 0.0006	 0.00616	 0.0	 5104.0	 5104.0	 5104.0	 0.0	 0.0	 1	 -12.716694	 12.716694;
	7519	 11823	 0.0005	 0.0074	 0.0	 4259.0	 4259.0	 4259.0	 0.0	 0.0	 1	 -12.716694	 12.716694;
	3073	 4516	 0.00107	 0.00626	 0.0	 4974.0	 4974.0	 4974.0	 0.0	 0.0	 1	 -12.716694	 12.716694;
	3073	 4706	 0.000841	 0.0055	 0.0	 5678.0	 5678.0	 5678.0	 0.0	 0.0	 1	 -12.716694	 12.716694;
	5157	 1032	 0.00143	 0.01563	 0.0	 2013.0	 2013.0	 2013.0	 0.0	 0.0	 1	 -12.716694	 12.716694;
	5157	 6653	 0.00146	 0.01692	 0.0	 1860.0	 1860.0	 1860.0	 0.0	 0.0	 1	 -12.716694	 12.716694;
	628	 7896	 7e-05	 0.00057	 0.0	 55004.0	 55004.0	 55004.0	 0.0	 0.0	 1	 -12.716694	 12.716694;
	628	 6592	 6e-05	 0.00056	 0.0	 56085.0	 56085.0	 56085.0	 0.0	 0.0	 1	 -12.716694	 12.716694;
	11792	 10888	 0.003349	 0.01656	 0.0	 1870.0	 1870.0	 1870.0	 0.0	 0.0	 1	 -12.716694	 12.716694;
	11792	 4609	 0.003409	 0.016211	 0.0	 1907.0	 1907.0	 1907.0	 0.0	 0.0	 1	 -12.716694	 12.716694;
	6573	 10888	 0.003479	 0.01586	 0.0	 1946.0	 1946.0	 1946.0	 0.0	 0.0	 1	 -12.716694	 12.716694;
	6573	 4609	 0.003099	 0.017969	 0.0	 1733.0	 1733.0	 1733.0	 0.0	 0.0	 1	 -12.716694	 12.716694;
	782	 13300	 0.00127	 0.01842	 0.0	 1711.0	 1711.0	 1711.0	 0.0	 0.0	 1	 -12.716694	 12.716694;
	782	 1186	 0.00126	 0.01847	 0.0	 1707.0	 1707.0	 1707.0	 0.0	 0.0	 1	 -12.716694	 12.716694;
	11715	 924	 0.0013	 0.01808	 0.0	 1743.0	 1743.0	 1743.0	 0.0	 0.0	 1	 -12.716694	 12.716694;
	11715	 12182	 0.00131	 0.01765	 0.0	 1785.0	 1785.0	 1785.0	 0.0	 0.0	 1	 -12.716694	 12.716694;
	10257	 2582	 0.00065	 0.01311	 0.0	 2891.0	 2891.0	 2891.0	 0.0	 0.0	 1	 -12.716694	 12.716694;
	10257	 9363	 0.00067	 0.00974	 0.0	 3851.0	 3851.0	 3851.0	 0.0	 0.0	 1	 -12.716694	 12.716694;
	7595	 11501	 0.00236	 0.01418	 0.0	 2198.0	 2198.0	 2198.0	 0.0	 0.0	 1	 -12.716694	 12.716694;
	7595	 11390	 0.002169	 0.015909	 0.0	 1968.0	 1968.0	 1968.0	 0.0	 0.0	 1	 -12.716694	 12.716694;
	6873	 1806	 0.00027	 0.00254	 0.0	 12367.0	 12367.0	 12367.0	 0.0	 0.0	 1	 -12.716694	 12.716694;
	6873	 11151	 0.00027	 0.00259	 0.0	 12131.0	 12131.0	 12131.0	 0.0	 0.0	 1	 -12.716694	 12.716694;
	11949	 1806	 0.00033	 0.00302	 0.0	 10398.0	 10398.0	 10398.0	 0.0	 0.0	 1	 -12.716694	 12.716694;
	11949	 1269	 0.00029	 0.00312	 0.0	 10081.0	 10081.0	 10081.0	 0.0	 0.0	 1	 -12.716694	 12.716694;
	2623	 3359	 0.000289	 0.00137	 0.0	 22560.0	 22560.0	 22560.0	 0.0	 0.0	 1	 -12.716694	 12.716694;
	2623	 11159	 0.000219	 0.00263	 0.0	 11969.0	 11969.0	 11969.0	 0.0	 0.0	 1	 -12.716694	 12.716694;
	3020	 3359	 0.000289	 0.001341	 0.0	 23027.0	 23027.0	 23027.0	 0.0	 0.0	 1	 -12.716694	 12.716694;
	3020	 12995	 0.000229	 0.00257	 0.0	 12243.0	 12243.0	 12243.0	 0.0	 0.0	 1	 -12.716694	 12.716694;
	9670	 3359	 0.000841	 0.00689	 0.0	 4551.0	 4551.0	 4551.0	 0.0	 0.0	 1	 -12.716694	 12.716694;
	9670	 2360	 0.000979	 0.00586	 0.0	 5317.0	 5317.0	 5317.0	 0.0	 0.0	 1	 -12.716694	 12.716694;
	8390	 3359	 0.00014	 0.0012	 0.0	 26146.0	 26146.0	 26146.0	 0.0	 0.0	 1	 -12.716694	 12.716694;
	8390	 11515	 0.000211	 0.001539	 0.0	 20335.0	 20335.0	 20335.0	 0.0	 0.0	 1	 -12.716694	 12.716694;
	12630	 3359	 0.000401	 0.004901	 0.0	 6424.0	 6424.0	 6424.0	 0.0	 0.0	 1	 -12.716694	 12.716694;
	12630	 11515	 0.000219	 0.00151	 0.0	 20703.0	 20703.0	 20703.0	 0.0	 0.0	 1	 -12.716694	 12.716694;
	3340	 3359	 0.000729	 0.004539	 0.0	 6872.0	 6872.0	 6872.0	 0.0	 0.0	 1	 -12.716694	 12.716694;
	3340	 3953	 0.00062	 0.00482	 0.0	 6500.0	 6500.0	 6500.0	 0.0	 0.0	 1	 -12.716694	 12.716694;
	7444	 8848	 0.00052	 0.00407	 0.0	 7699.0	 7699.0	 7699.0	 0.0	 0.0	 1	 -12.716694	 12.716694;
	7444	 5026	 0.00034	 0.00502	 0.0	 6278.0	 6278.0	 6278.0	 0.0	 0.0	 1	 -12.716694	 12.716694;
	11055	 8848	 0.00065	 0.00698	 0.0	 4506.0	 4506.0	 4506.0	 0.0	 0.0	 1	 -12.716694	 12.716694;
	11055	 13067	 0.00059	 0.00806	 0.0	 3909.0	 3909.0	 3909.0	 0.0	 0.0	 1	 -12.716694	 12.716694;
	9857	 13125	 0.00063	 0.00464	 0.0	 6746.0	 6746.0	 6746.0	 0.0	 0.0	 1	 -12.716694	 12.716694;
	9857	 12598	 0.000599	 0.005099	 0.0	 6153.0	 6153.0	 6153.0	 0.0	 0.0	 1	 -12.716694	 12.716694;
	7256	 7011	 0.00064	 0.00307	 0.0	 10073.0	 10073.0	 10073.0	 0.0	 0.0	 1	 -12.716694	 12.716694;
	7256	 11232	 0.000659	 0.003	 0.0	 10284.0	 10284.0	 10284.0	 0.0	 0.0	 1	 -12.716694	 12.716694;
	12732	 9895	 0.00053	 0.00528	 0.0	 5953.0	 5953.0	 5953.0	 0.0	 0.0	 1	 -12.716694	 12.716694;
	12732	 4416	 0.00056	 0.0053	 0.0	 5927.0	 5927.0	 5927.0	 0.0	 0.0	 1	 -12.716694	 12.716694;
	4494	 7011	 0.0018	 0.007919	 0.0	 3890.0	 3890.0	 3890.0	 0.0	 0.0	 1	 -12.716694	 12.716694;
	4494	 10481	 0.001651	 0.00862	 0.0	 3600.0	 3600.0	 3600.0	 0.0	 0.0	 1	 -12.716694	 12.716694;
	7913	 9895	 0.00045	 0.00545	 0.0	 5777.0	 5777.0	 5777.0	 0.0	 0.0	 1	 -12.716694	 12.716694;
	7913	 1269	 0.00052	 0.00476	 0.0	 6597.0	 6597.0	 6597.0	 0.0	 0.0	 1	 -12.716694	 12.716694;
	3258	 10043	 0.01286	 0.037421	 0.0	 799.0	 799.0	 799.0	 0.0	 0.0	 1	 -12.716694	 12.716694;
	3258	 8238	 0.032397	 0.123	 0.0	 249.0	 249.0	 249.0	 0.0	 0.0	 1	 -12.716694	 12.716694;
	697	 10043	 0.032851	 0.069727	 0.0	 410.0	 410.0	 410.0	 0.0	 0.0	 1	 -12.716694	 12.716694;
	697	 11841	 0.059942	 0.112802	 0.0	 248.0	 248.0	 248.0	 0.0	 0.0	 1	 -12.716694	 12.716694;
	11629	 10942	 0.00011	 0.00109	 0.0	 28833.0	 28833.0	 28833.0	 0.0	 0.0	 1	 -12.716694	 12.716694;
	11629	 13171	 0.00011	 0.00107	 0.0	 29367.0	 29367.0	 29367.0	 0.0	 0.0	 1	 -12.716694	 12.716694;
...